boeing_q2000_a0_e0_d1360_t1800.fds
Generated by PyroSim - Version 2020.5.1118
2026-7-7 9:44:21

&HEAD CHID='boeing_q2000_a0_e0_d1360_t1800'/
&TIME T_END=1800.0/
&DUMP DT_RESTART=300.0, DT_SL3D=1.0/
&CLIP MINIMUM_TEMPERATURE=20.0, MAXIMUM_TEMPERATURE=10000.0/

&MESH ID='Mesh02', IJK=56,124,10, XB=227.0,451.0,-1.0,495.0,0.0,40.0/
&MESH ID='Mesh01', IJK=57,124,10, XB=-1.0,227.0,-1.0,495.0,0.0,40.0/
&MESH ID='Mesh03', IJK=60,124,10, XB=451.0,691.0,-1.0,495.0,0.0,40.0/
&MESH ID='Mesh04', IJK=65,124,10, XB=691.0,951.0,-1.0,495.0,0.0,40.0/
&MESH ID='Mesh05', IJK=61,124,10, XB=951.0,1195.0,-1.0,495.0,0.0,40.0/


&REAC ID='METHANE',
      FYI='AFT NIST Multi-Floor FDS5 Validation',
      FUEL='METHANE',
      H=4.0,
      C=1.0/

&DEVC ID='TEMP_bangongjiaju_01', QUANTITY='TEMPERATURE', XYZ=169.0,325.0,4.0/
&DEVC ID='RHF_bangongjiaju_01', QUANTITY='RADIATIVE HEAT FLUX GAS', XYZ=169.0,325.0,4.0, ORIENTATION=1.0,0.0,0.0/
&DEVC ID='TEMP_bangongjiaju_02', QUANTITY='TEMPERATURE', XYZ=169.0,386.0,4.0/
&DEVC ID='RHF_bangongjiaju_02', QUANTITY='RADIATIVE HEAT FLUX GAS', XYZ=169.0,386.0,4.0, ORIENTATION=1.0,0.0,0.0/
&DEVC ID='TEMP_bangongjiaju_03', QUANTITY='TEMPERATURE', XYZ=171.0,307.0,5.0/
&DEVC ID='RHF_bangongjiaju_03', QUANTITY='RADIATIVE HEAT FLUX GAS', XYZ=171.0,307.0,5.0, ORIENTATION=1.0,0.0,0.0/
&DEVC ID='TEMP_bangongjiaju_04', QUANTITY='TEMPERATURE', XYZ=171.0,341.0,5.0/
&DEVC ID='RHF_bangongjiaju_04', QUANTITY='RADIATIVE HEAT FLUX GAS', XYZ=171.0,341.0,5.0, ORIENTATION=1.0,0.0,0.0/
&DEVC ID='TEMP_bangongjiaju_05', QUANTITY='TEMPERATURE', XYZ=171.0,369.0,5.0/
&DEVC ID='RHF_bangongjiaju_05', QUANTITY='RADIATIVE HEAT FLUX GAS', XYZ=171.0,369.0,5.0, ORIENTATION=1.0,0.0,0.0/
&DEVC ID='TEMP_bangongjiaju_06', QUANTITY='TEMPERATURE', XYZ=171.0,403.0,5.0/
&DEVC ID='RHF_bangongjiaju_06', QUANTITY='RADIATIVE HEAT FLUX GAS', XYZ=171.0,403.0,5.0, ORIENTATION=1.0,0.0,0.0/
&DEVC ID='TEMP_bangongjiaju_07', QUANTITY='TEMPERATURE', XYZ=191.0,307.0,5.0/
&DEVC ID='RHF_bangongjiaju_07', QUANTITY='RADIATIVE HEAT FLUX GAS', XYZ=191.0,307.0,5.0, ORIENTATION=1.0,0.0,0.0/
&DEVC ID='TEMP_bangongjiaju_08', QUANTITY='TEMPERATURE', XYZ=191.0,341.0,5.0/
&DEVC ID='RHF_bangongjiaju_08', QUANTITY='RADIATIVE HEAT FLUX GAS', XYZ=191.0,341.0,5.0, ORIENTATION=1.0,0.0,0.0/
&DEVC ID='TEMP_bangongjiaju_09', QUANTITY='TEMPERATURE', XYZ=191.0,369.0,5.0/
&DEVC ID='RHF_bangongjiaju_09', QUANTITY='RADIATIVE HEAT FLUX GAS', XYZ=191.0,369.0,5.0, ORIENTATION=1.0,0.0,0.0/
&DEVC ID='TEMP_bangongjiaju_10', QUANTITY='TEMPERATURE', XYZ=191.0,403.0,5.0/
&DEVC ID='RHF_bangongjiaju_10', QUANTITY='RADIATIVE HEAT FLUX GAS', XYZ=191.0,403.0,5.0, ORIENTATION=1.0,0.0,0.0/
&DEVC ID='TEMP_bangongjiaju_11', QUANTITY='TEMPERATURE', XYZ=213.0,307.0,5.0/
&DEVC ID='RHF_bangongjiaju_11', QUANTITY='RADIATIVE HEAT FLUX GAS', XYZ=213.0,307.0,5.0, ORIENTATION=1.0,0.0,0.0/
&DEVC ID='TEMP_bangongjiaju_12', QUANTITY='TEMPERATURE', XYZ=213.0,341.0,5.0/
&DEVC ID='RHF_bangongjiaju_12', QUANTITY='RADIATIVE HEAT FLUX GAS', XYZ=213.0,341.0,5.0, ORIENTATION=1.0,0.0,0.0/
&DEVC ID='TEMP_bangongjiaju_13', QUANTITY='TEMPERATURE', XYZ=213.0,369.0,5.0/
&DEVC ID='RHF_bangongjiaju_13', QUANTITY='RADIATIVE HEAT FLUX GAS', XYZ=213.0,369.0,5.0, ORIENTATION=1.0,0.0,0.0/
&DEVC ID='TEMP_bangongjiaju_14', QUANTITY='TEMPERATURE', XYZ=213.0,403.0,5.0/
&DEVC ID='RHF_bangongjiaju_14', QUANTITY='RADIATIVE HEAT FLUX GAS', XYZ=213.0,403.0,5.0, ORIENTATION=1.0,0.0,0.0/
&DEVC ID='TEMP_feiji_01', QUANTITY='TEMPERATURE', XYZ=275.0,212.0,14.0/
&DEVC ID='RHF_feiji_01', QUANTITY='RADIATIVE HEAT FLUX GAS', XYZ=275.0,212.0,14.0, ORIENTATION=1.0,0.0,0.0/
&DEVC ID='TEMP_feiji_02', QUANTITY='TEMPERATURE', XYZ=401.0,234.0,14.0/
&DEVC ID='RHF_feiji_02', QUANTITY='RADIATIVE HEAT FLUX GAS', XYZ=401.0,234.0,14.0, ORIENTATION=1.0,0.0,0.0/
&DEVC ID='TEMP_feiji_03', QUANTITY='TEMPERATURE', XYZ=505.0,99.0,14.0/
&DEVC ID='RHF_feiji_03', QUANTITY='RADIATIVE HEAT FLUX GAS', XYZ=505.0,99.0,14.0, ORIENTATION=1.0,0.0,0.0/
&DEVC ID='TEMP_feiji_04', QUANTITY='TEMPERATURE', XYZ=512.0,335.0,14.0/
&DEVC ID='RHF_feiji_04', QUANTITY='RADIATIVE HEAT FLUX GAS', XYZ=512.0,335.0,14.0, ORIENTATION=1.0,0.0,0.0/
&DEVC ID='TEMP_feiji_05', QUANTITY='TEMPERATURE', XYZ=512.0,414.0,14.0/
&DEVC ID='RHF_feiji_05', QUANTITY='RADIATIVE HEAT FLUX GAS', XYZ=512.0,414.0,14.0, ORIENTATION=1.0,0.0,0.0/
&DEVC ID='TEMP_feiji_06', QUANTITY='TEMPERATURE', XYZ=623.0,210.0,14.0/
&DEVC ID='RHF_feiji_06', QUANTITY='RADIATIVE HEAT FLUX GAS', XYZ=623.0,210.0,14.0, ORIENTATION=1.0,0.0,0.0/
&DEVC ID='TEMP_feiji_07', QUANTITY='TEMPERATURE', XYZ=623.0,290.0,14.0/
&DEVC ID='RHF_feiji_07', QUANTITY='RADIATIVE HEAT FLUX GAS', XYZ=623.0,290.0,14.0, ORIENTATION=1.0,0.0,0.0/
&DEVC ID='TEMP_feiji_08', QUANTITY='TEMPERATURE', XYZ=623.0,403.0,14.0/
&DEVC ID='RHF_feiji_08', QUANTITY='RADIATIVE HEAT FLUX GAS', XYZ=623.0,403.0,14.0, ORIENTATION=1.0,0.0,0.0/
&DEVC ID='TEMP_feiji_09', QUANTITY='TEMPERATURE', XYZ=738.0,48.0,14.0/
&DEVC ID='RHF_feiji_09', QUANTITY='RADIATIVE HEAT FLUX GAS', XYZ=738.0,48.0,14.0, ORIENTATION=1.0,0.0,0.0/
&DEVC ID='TEMP_feiji_10', QUANTITY='TEMPERATURE', XYZ=738.0,254.0,14.0/
&DEVC ID='RHF_feiji_10', QUANTITY='RADIATIVE HEAT FLUX GAS', XYZ=738.0,254.0,14.0, ORIENTATION=1.0,0.0,0.0/
&DEVC ID='TEMP_feiji_11', QUANTITY='TEMPERATURE', XYZ=739.0,143.0,14.0/
&DEVC ID='RHF_feiji_11', QUANTITY='RADIATIVE HEAT FLUX GAS', XYZ=739.0,143.0,14.0, ORIENTATION=1.0,0.0,0.0/
&DEVC ID='TEMP_feiji_12', QUANTITY='TEMPERATURE', XYZ=873.0,39.0,14.0/
&DEVC ID='RHF_feiji_12', QUANTITY='RADIATIVE HEAT FLUX GAS', XYZ=873.0,39.0,14.0, ORIENTATION=1.0,0.0,0.0/
&DEVC ID='TEMP_feiji_13', QUANTITY='TEMPERATURE', XYZ=873.0,127.0,14.0/
&DEVC ID='RHF_feiji_13', QUANTITY='RADIATIVE HEAT FLUX GAS', XYZ=873.0,127.0,14.0, ORIENTATION=1.0,0.0,0.0/
&DEVC ID='TEMP_jiyi_01', QUANTITY='TEMPERATURE', XYZ=44.0,394.0,8.0/
&DEVC ID='RHF_jiyi_01', QUANTITY='RADIATIVE HEAT FLUX GAS', XYZ=44.0,394.0,8.0, ORIENTATION=1.0,0.0,0.0/
&DEVC ID='TEMP_jiyi_02', QUANTITY='TEMPERATURE', XYZ=44.0,416.0,8.0/
&DEVC ID='RHF_jiyi_02', QUANTITY='RADIATIVE HEAT FLUX GAS', XYZ=44.0,416.0,8.0, ORIENTATION=1.0,0.0,0.0/
&DEVC ID='TEMP_jiyi_03', QUANTITY='TEMPERATURE', XYZ=44.0,440.0,8.0/
&DEVC ID='RHF_jiyi_03', QUANTITY='RADIATIVE HEAT FLUX GAS', XYZ=44.0,440.0,8.0, ORIENTATION=1.0,0.0,0.0/
&DEVC ID='TEMP_jiyi_04', QUANTITY='TEMPERATURE', XYZ=294.0,63.0,6.0/
&DEVC ID='RHF_jiyi_04', QUANTITY='RADIATIVE HEAT FLUX GAS', XYZ=294.0,63.0,6.0, ORIENTATION=1.0,0.0,0.0/
&DEVC ID='TEMP_jiyi_05', QUANTITY='TEMPERATURE', XYZ=294.0,89.0,6.0/
&DEVC ID='RHF_jiyi_05', QUANTITY='RADIATIVE HEAT FLUX GAS', XYZ=294.0,89.0,6.0, ORIENTATION=1.0,0.0,0.0/
&DEVC ID='TEMP_jiyi_06', QUANTITY='TEMPERATURE', XYZ=360.0,128.0,6.0/
&DEVC ID='RHF_jiyi_06', QUANTITY='RADIATIVE HEAT FLUX GAS', XYZ=360.0,128.0,6.0, ORIENTATION=1.0,0.0,0.0/
&DEVC ID='TEMP_jiyi_07', QUANTITY='TEMPERATURE', XYZ=360.0,154.0,6.0/
&DEVC ID='RHF_jiyi_07', QUANTITY='RADIATIVE HEAT FLUX GAS', XYZ=360.0,154.0,6.0, ORIENTATION=1.0,0.0,0.0/
&DEVC ID='TEMP_jiyi_08', QUANTITY='TEMPERATURE', XYZ=505.0,202.0,8.0/
&DEVC ID='RHF_jiyi_08', QUANTITY='RADIATIVE HEAT FLUX GAS', XYZ=505.0,202.0,8.0, ORIENTATION=1.0,0.0,0.0/
&DEVC ID='TEMP_jiyi_09', QUANTITY='TEMPERATURE', XYZ=505.0,224.0,8.0/
&DEVC ID='RHF_jiyi_09', QUANTITY='RADIATIVE HEAT FLUX GAS', XYZ=505.0,224.0,8.0, ORIENTATION=1.0,0.0,0.0/
&DEVC ID='TEMP_jiyi_10', QUANTITY='TEMPERATURE', XYZ=505.0,248.0,8.0/
&DEVC ID='RHF_jiyi_10', QUANTITY='RADIATIVE HEAT FLUX GAS', XYZ=505.0,248.0,8.0, ORIENTATION=1.0,0.0,0.0/
&DEVC ID='TEMP_jiyi_11', QUANTITY='TEMPERATURE', XYZ=738.0,321.0,8.0/
&DEVC ID='RHF_jiyi_11', QUANTITY='RADIATIVE HEAT FLUX GAS', XYZ=738.0,321.0,8.0, ORIENTATION=1.0,0.0,0.0/
&DEVC ID='TEMP_jiyi_12', QUANTITY='TEMPERATURE', XYZ=738.0,339.0,8.0/
&DEVC ID='RHF_jiyi_12', QUANTITY='RADIATIVE HEAT FLUX GAS', XYZ=738.0,339.0,8.0, ORIENTATION=1.0,0.0,0.0/
&DEVC ID='TEMP_jiyi_13', QUANTITY='TEMPERATURE', XYZ=739.0,358.0,8.0/
&DEVC ID='RHF_jiyi_13', QUANTITY='RADIATIVE HEAT FLUX GAS', XYZ=739.0,358.0,8.0, ORIENTATION=1.0,0.0,0.0/
&DEVC ID='TEMP_jiyi_14', QUANTITY='TEMPERATURE', XYZ=873.0,210.0,8.0/
&DEVC ID='RHF_jiyi_14', QUANTITY='RADIATIVE HEAT FLUX GAS', XYZ=873.0,210.0,8.0, ORIENTATION=1.0,0.0,0.0/
&DEVC ID='TEMP_jiyi_15', QUANTITY='TEMPERATURE', XYZ=873.0,228.0,8.0/
&DEVC ID='RHF_jiyi_15', QUANTITY='RADIATIVE HEAT FLUX GAS', XYZ=873.0,228.0,8.0, ORIENTATION=1.0,0.0,0.0/
&DEVC ID='TEMP_jiyi_16', QUANTITY='TEMPERATURE', XYZ=873.0,247.0,8.0/
&DEVC ID='RHF_jiyi_16', QUANTITY='RADIATIVE HEAT FLUX GAS', XYZ=873.0,247.0,8.0, ORIENTATION=1.0,0.0,0.0/
&DEVC ID='TEMP_jiyi_17', QUANTITY='TEMPERATURE', XYZ=1099.0,218.0,8.0/
&DEVC ID='RHF_jiyi_17', QUANTITY='RADIATIVE HEAT FLUX GAS', XYZ=1099.0,218.0,8.0, ORIENTATION=1.0,0.0,0.0/
&DEVC ID='TEMP_jiyi_18', QUANTITY='TEMPERATURE', XYZ=1099.0,236.0,8.0/
&DEVC ID='RHF_jiyi_18', QUANTITY='RADIATIVE HEAT FLUX GAS', XYZ=1099.0,236.0,8.0, ORIENTATION=1.0,0.0,0.0/
&DEVC ID='TEMP_jiyi_19', QUANTITY='TEMPERATURE', XYZ=1099.0,254.0,8.0/
&DEVC ID='RHF_jiyi_19', QUANTITY='RADIATIVE HEAT FLUX GAS', XYZ=1099.0,254.0,8.0, ORIENTATION=1.0,0.0,0.0/
&DEVC ID='TEMP_yibingchunqingxiji_01', QUANTITY='TEMPERATURE', XYZ=43.0,43.0,6.0/
&DEVC ID='RHF_yibingchunqingxiji_01', QUANTITY='RADIATIVE HEAT FLUX GAS', XYZ=43.0,43.0,6.0, ORIENTATION=1.0,0.0,0.0/
&DEVC ID='TEMP_walengzhiban_01', QUANTITY='TEMPERATURE', XYZ=51.0,63.0,6.0/
&DEVC ID='RHF_walengzhiban_01', QUANTITY='RADIATIVE HEAT FLUX GAS', XYZ=51.0,63.0,6.0, ORIENTATION=1.0,0.0,0.0/
&DEVC ID='TEMP_walengzhiban_02', QUANTITY='TEMPERATURE', XYZ=51.0,87.0,6.0/
&DEVC ID='RHF_walengzhiban_02', QUANTITY='RADIATIVE HEAT FLUX GAS', XYZ=51.0,87.0,6.0, ORIENTATION=1.0,0.0,0.0/
&DEVC ID='TEMP_walengzhiban_03', QUANTITY='TEMPERATURE', XYZ=79.0,363.0,6.0/
&DEVC ID='RHF_walengzhiban_03', QUANTITY='RADIATIVE HEAT FLUX GAS', XYZ=79.0,363.0,6.0, ORIENTATION=1.0,0.0,0.0/
&DEVC ID='TEMP_walengzhiban_04', QUANTITY='TEMPERATURE', XYZ=79.0,387.0,6.0/
&DEVC ID='RHF_walengzhiban_04', QUANTITY='RADIATIVE HEAT FLUX GAS', XYZ=79.0,387.0,6.0, ORIENTATION=1.0,0.0,0.0/
&DEVC ID='TEMP_walengzhiban_05', QUANTITY='TEMPERATURE', XYZ=89.0,173.0,6.0/
&DEVC ID='RHF_walengzhiban_05', QUANTITY='RADIATIVE HEAT FLUX GAS', XYZ=89.0,173.0,6.0, ORIENTATION=1.0,0.0,0.0/
&DEVC ID='TEMP_walengzhiban_06', QUANTITY='TEMPERATURE', XYZ=91.0,193.0,6.0/
&DEVC ID='RHF_walengzhiban_06', QUANTITY='RADIATIVE HEAT FLUX GAS', XYZ=91.0,193.0,6.0, ORIENTATION=1.0,0.0,0.0/
&DEVC ID='TEMP_yibingchunqingxiji_02', QUANTITY='TEMPERATURE', XYZ=95.0,43.0,6.0/
&DEVC ID='RHF_yibingchunqingxiji_02', QUANTITY='RADIATIVE HEAT FLUX GAS', XYZ=95.0,43.0,6.0, ORIENTATION=1.0,0.0,0.0/
&DEVC ID='TEMP_walengzhiban_07', QUANTITY='TEMPERATURE', XYZ=107.0,163.0,6.0/
&DEVC ID='RHF_walengzhiban_07', QUANTITY='RADIATIVE HEAT FLUX GAS', XYZ=107.0,163.0,6.0, ORIENTATION=1.0,0.0,0.0/
&DEVC ID='TEMP_walengzhiban_08', QUANTITY='TEMPERATURE', XYZ=107.0,363.0,6.0/
&DEVC ID='RHF_walengzhiban_08', QUANTITY='RADIATIVE HEAT FLUX GAS', XYZ=107.0,363.0,6.0, ORIENTATION=1.0,0.0,0.0/
&DEVC ID='TEMP_walengzhiban_09', QUANTITY='TEMPERATURE', XYZ=107.0,387.0,6.0/
&DEVC ID='RHF_walengzhiban_09', QUANTITY='RADIATIVE HEAT FLUX GAS', XYZ=107.0,387.0,6.0, ORIENTATION=1.0,0.0,0.0/
&DEVC ID='TEMP_walengzhiban_10', QUANTITY='TEMPERATURE', XYZ=135.0,63.0,6.0/
&DEVC ID='RHF_walengzhiban_10', QUANTITY='RADIATIVE HEAT FLUX GAS', XYZ=135.0,63.0,6.0, ORIENTATION=1.0,0.0,0.0/
&DEVC ID='TEMP_walengzhiban_11', QUANTITY='TEMPERATURE', XYZ=135.0,87.0,6.0/
&DEVC ID='RHF_walengzhiban_11', QUANTITY='RADIATIVE HEAT FLUX GAS', XYZ=135.0,87.0,6.0, ORIENTATION=1.0,0.0,0.0/
&DEVC ID='TEMP_walengzhiban_12', QUANTITY='TEMPERATURE', XYZ=135.0,163.0,6.0/
&DEVC ID='RHF_walengzhiban_12', QUANTITY='RADIATIVE HEAT FLUX GAS', XYZ=135.0,163.0,6.0, ORIENTATION=1.0,0.0,0.0/
&DEVC ID='TEMP_pvcdianlan_01', QUANTITY='TEMPERATURE', XYZ=199.0,191.0,6.0/
&DEVC ID='RHF_pvcdianlan_01', QUANTITY='RADIATIVE HEAT FLUX GAS', XYZ=199.0,191.0,6.0, ORIENTATION=1.0,0.0,0.0/
&DEVC ID='TEMP_pvcdianlan_02', QUANTITY='TEMPERATURE', XYZ=199.0,271.0,6.0/
&DEVC ID='RHF_pvcdianlan_02', QUANTITY='RADIATIVE HEAT FLUX GAS', XYZ=199.0,271.0,6.0, ORIENTATION=1.0,0.0,0.0/
&DEVC ID='TEMP_huanyangshuzhi_01', QUANTITY='TEMPERATURE', XYZ=247.0,43.0,6.0/
&DEVC ID='RHF_huanyangshuzhi_01', QUANTITY='RADIATIVE HEAT FLUX GAS', XYZ=247.0,43.0,6.0, ORIENTATION=1.0,0.0,0.0/
&DEVC ID='TEMP_huanyangshuzhi_02', QUANTITY='TEMPERATURE', XYZ=247.0,331.0,6.0/
&DEVC ID='RHF_huanyangshuzhi_02', QUANTITY='RADIATIVE HEAT FLUX GAS', XYZ=247.0,331.0,6.0, ORIENTATION=1.0,0.0,0.0/
&DEVC ID='TEMP_huanyangshuzhi_03', QUANTITY='TEMPERATURE', XYZ=271.0,43.0,6.0/
&DEVC ID='RHF_huanyangshuzhi_03', QUANTITY='RADIATIVE HEAT FLUX GAS', XYZ=271.0,43.0,6.0, ORIENTATION=1.0,0.0,0.0/
&DEVC ID='TEMP_huanyangshuzhi_04', QUANTITY='TEMPERATURE', XYZ=271.0,331.0,6.0/
&DEVC ID='RHF_huanyangshuzhi_04', QUANTITY='RADIATIVE HEAT FLUX GAS', XYZ=271.0,331.0,6.0, ORIENTATION=1.0,0.0,0.0/
&DEVC ID='TEMP_huanyangshuzhi_05', QUANTITY='TEMPERATURE', XYZ=295.0,43.0,6.0/
&DEVC ID='RHF_huanyangshuzhi_05', QUANTITY='RADIATIVE HEAT FLUX GAS', XYZ=295.0,43.0,6.0, ORIENTATION=1.0,0.0,0.0/
&DEVC ID='TEMP_pvcdianlan_03', QUANTITY='TEMPERATURE', XYZ=407.0,151.0,6.0/
&DEVC ID='RHF_pvcdianlan_03', QUANTITY='RADIATIVE HEAT FLUX GAS', XYZ=407.0,151.0,6.0, ORIENTATION=1.0,0.0,0.0/
&DEVC ID='TEMP_pvcdianlan_04', QUANTITY='TEMPERATURE', XYZ=407.0,271.0,6.0/
&DEVC ID='RHF_pvcdianlan_04', QUANTITY='RADIATIVE HEAT FLUX GAS', XYZ=407.0,271.0,6.0, ORIENTATION=1.0,0.0,0.0/
&DEVC ID='TEMP_walengzhiban_13', QUANTITY='TEMPERATURE', XYZ=491.0,273.0,6.0/
&DEVC ID='RHF_walengzhiban_13', QUANTITY='RADIATIVE HEAT FLUX GAS', XYZ=491.0,273.0,6.0, ORIENTATION=1.0,0.0,0.0/
&DEVC ID='TEMP_gongyeyoupin_01', QUANTITY='TEMPERATURE', XYZ=493.0,323.0,6.0/
&DEVC ID='RHF_gongyeyoupin_01', QUANTITY='RADIATIVE HEAT FLUX GAS', XYZ=493.0,323.0,6.0, ORIENTATION=1.0,0.0,0.0/
&DEVC ID='TEMP_gongyeyoupin_02', QUANTITY='TEMPERATURE', XYZ=503.0,43.0,6.0/
&DEVC ID='RHF_gongyeyoupin_02', QUANTITY='RADIATIVE HEAT FLUX GAS', XYZ=503.0,43.0,6.0, ORIENTATION=1.0,0.0,0.0/
&DEVC ID='TEMP_gongyeyoupin_03', QUANTITY='TEMPERATURE', XYZ=519.0,43.0,6.0/
&DEVC ID='RHF_gongyeyoupin_03', QUANTITY='RADIATIVE HEAT FLUX GAS', XYZ=519.0,43.0,6.0, ORIENTATION=1.0,0.0,0.0/
&DEVC ID='TEMP_gongyeyoupin_04', QUANTITY='TEMPERATURE', XYZ=529.0,323.0,6.0/
&DEVC ID='RHF_gongyeyoupin_04', QUANTITY='RADIATIVE HEAT FLUX GAS', XYZ=529.0,323.0,6.0, ORIENTATION=1.0,0.0,0.0/
&DEVC ID='TEMP_walengzhiban_14', QUANTITY='TEMPERATURE', XYZ=539.0,283.0,6.0/
&DEVC ID='RHF_walengzhiban_14', QUANTITY='RADIATIVE HEAT FLUX GAS', XYZ=539.0,283.0,6.0, ORIENTATION=1.0,0.0,0.0/
&DEVC ID='TEMP_walengzhiban_15', QUANTITY='TEMPERATURE', XYZ=567.0,243.0,6.0/
&DEVC ID='RHF_walengzhiban_15', QUANTITY='RADIATIVE HEAT FLUX GAS', XYZ=567.0,243.0,6.0, ORIENTATION=1.0,0.0,0.0/
&DEVC ID='TEMP_huanyangshuzhi_06', QUANTITY='TEMPERATURE', XYZ=607.0,169.0,6.0/
&DEVC ID='RHF_huanyangshuzhi_06', QUANTITY='RADIATIVE HEAT FLUX GAS', XYZ=607.0,169.0,6.0, ORIENTATION=1.0,0.0,0.0/
&DEVC ID='TEMP_yibingchunqingxiji_03', QUANTITY='TEMPERATURE', XYZ=713.0,43.0,6.0/
&DEVC ID='RHF_yibingchunqingxiji_03', QUANTITY='RADIATIVE HEAT FLUX GAS', XYZ=713.0,43.0,6.0, ORIENTATION=1.0,0.0,0.0/
&DEVC ID='TEMP_walengzhiban_16', QUANTITY='TEMPERATURE', XYZ=749.0,383.0,6.0/
&DEVC ID='RHF_walengzhiban_16', QUANTITY='RADIATIVE HEAT FLUX GAS', XYZ=749.0,383.0,6.0, ORIENTATION=1.0,0.0,0.0/
&DEVC ID='TEMP_yibingchunqingxiji_04', QUANTITY='TEMPERATURE', XYZ=759.0,43.0,6.0/
&DEVC ID='RHF_yibingchunqingxiji_04', QUANTITY='RADIATIVE HEAT FLUX GAS', XYZ=759.0,43.0,6.0, ORIENTATION=1.0,0.0,0.0/
&DEVC ID='TEMP_huanyangshuzhi_07', QUANTITY='TEMPERATURE', XYZ=775.0,315.0,6.0/
&DEVC ID='RHF_huanyangshuzhi_07', QUANTITY='RADIATIVE HEAT FLUX GAS', XYZ=775.0,315.0,6.0, ORIENTATION=1.0,0.0,0.0/
&DEVC ID='TEMP_walengzhiban_17', QUANTITY='TEMPERATURE', XYZ=795.0,363.0,6.0/
&DEVC ID='RHF_walengzhiban_17', QUANTITY='RADIATIVE HEAT FLUX GAS', XYZ=795.0,363.0,6.0, ORIENTATION=1.0,0.0,0.0/
&DEVC ID='TEMP_huanyangshuzhi_08', QUANTITY='TEMPERATURE', XYZ=799.0,335.0,6.0/
&DEVC ID='RHF_huanyangshuzhi_08', QUANTITY='RADIATIVE HEAT FLUX GAS', XYZ=799.0,335.0,6.0, ORIENTATION=1.0,0.0,0.0/
&DEVC ID='TEMP_pvcdianlan_05', QUANTITY='TEMPERATURE', XYZ=819.0,151.0,6.0/
&DEVC ID='RHF_pvcdianlan_05', QUANTITY='RADIATIVE HEAT FLUX GAS', XYZ=819.0,151.0,6.0, ORIENTATION=1.0,0.0,0.0/
&DEVC ID='TEMP_pvcdianlan_06', QUANTITY='TEMPERATURE', XYZ=819.0,271.0,6.0/
&DEVC ID='RHF_pvcdianlan_06', QUANTITY='RADIATIVE HEAT FLUX GAS', XYZ=819.0,271.0,6.0, ORIENTATION=1.0,0.0,0.0/
&DEVC ID='TEMP_walengzhiban_18', QUANTITY='TEMPERATURE', XYZ=811.0,383.0,6.0/
&DEVC ID='RHF_walengzhiban_18', QUANTITY='RADIATIVE HEAT FLUX GAS', XYZ=811.0,383.0,6.0, ORIENTATION=1.0,0.0,0.0/
&DEVC ID='TEMP_walengzhiban_19', QUANTITY='TEMPERATURE', XYZ=823.0,363.0,6.0/
&DEVC ID='RHF_walengzhiban_19', QUANTITY='RADIATIVE HEAT FLUX GAS', XYZ=823.0,363.0,6.0, ORIENTATION=1.0,0.0,0.0/
&DEVC ID='TEMP_walengzhiban_20', QUANTITY='TEMPERATURE', XYZ=851.0,363.0,6.0/
&DEVC ID='RHF_walengzhiban_20', QUANTITY='RADIATIVE HEAT FLUX GAS', XYZ=851.0,363.0,6.0, ORIENTATION=1.0,0.0,0.0/
&DEVC ID='TEMP_walengzhiban_21', QUANTITY='TEMPERATURE', XYZ=867.0,393.0,6.0/
&DEVC ID='RHF_walengzhiban_21', QUANTITY='RADIATIVE HEAT FLUX GAS', XYZ=867.0,393.0,6.0, ORIENTATION=1.0,0.0,0.0/
&DEVC ID='TEMP_yibingchunqingxiji_05', QUANTITY='TEMPERATURE', XYZ=923.0,43.0,6.0/
&DEVC ID='RHF_yibingchunqingxiji_05', QUANTITY='RADIATIVE HEAT FLUX GAS', XYZ=923.0,43.0,6.0, ORIENTATION=1.0,0.0,0.0/
&DEVC ID='TEMP_gongyeyoupin_05', QUANTITY='TEMPERATURE', XYZ=927.0,163.0,6.0/
&DEVC ID='RHF_gongyeyoupin_05', QUANTITY='RADIATIVE HEAT FLUX GAS', XYZ=927.0,163.0,6.0, ORIENTATION=1.0,0.0,0.0/
&DEVC ID='TEMP_gongyeyoupin_06', QUANTITY='TEMPERATURE', XYZ=933.0,203.0,6.0/
&DEVC ID='RHF_gongyeyoupin_06', QUANTITY='RADIATIVE HEAT FLUX GAS', XYZ=933.0,203.0,6.0, ORIENTATION=1.0,0.0,0.0/
&DEVC ID='TEMP_walengzhiban_22', QUANTITY='TEMPERATURE', XYZ=1139.0,359.0,0.0/
&DEVC ID='RHF_walengzhiban_22', QUANTITY='RADIATIVE HEAT FLUX GAS', XYZ=1139.0,363.0,6.0, ORIENTATION=1.0,0.0,0.0/
&DEVC ID='TEMP_walengzhiban_23', QUANTITY='TEMPERATURE', XYZ=1087.0,363.0,6.0/
&DEVC ID='RHF_walengzhiban_23', QUANTITY='RADIATIVE HEAT FLUX GAS', XYZ=1087.0,363.0,6.0, ORIENTATION=1.0,0.0,0.0/
&DEVC ID='TEMP_walengzhiban_24', QUANTITY='TEMPERATURE', XYZ=1055.0,363.0,6.0/
&DEVC ID='RHF_walengzhiban_24', QUANTITY='RADIATIVE HEAT FLUX GAS', XYZ=1055.0,363.0,6.0, ORIENTATION=1.0,0.0,0.0/
&DEVC ID='TEMP_pvcdianlan_07', QUANTITY='TEMPERATURE', XYZ=1057.0,351.0,6.0/
&DEVC ID='RHF_pvcdianlan_07', QUANTITY='RADIATIVE HEAT FLUX GAS', XYZ=1057.0,351.0,6.0, ORIENTATION=1.0,0.0,0.0/
&DEVC ID='TEMP_pvcdianlan_08', QUANTITY='TEMPERATURE', XYZ=1059.0,331.0,6.0/
&DEVC ID='RHF_pvcdianlan_08', QUANTITY='RADIATIVE HEAT FLUX GAS', XYZ=1059.0,331.0,6.0, ORIENTATION=1.0,0.0,0.0/
&DEVC ID='TEMP_pvcdianlan_09', QUANTITY='TEMPERATURE', XYZ=1079.0,171.0,6.0/
&DEVC ID='RHF_pvcdianlan_09', QUANTITY='RADIATIVE HEAT FLUX GAS', XYZ=1079.0,171.0,6.0, ORIENTATION=1.0,0.0,0.0/
&DEVC ID='XMAX', QUANTITY='RADIATIVE HEAT FLUX GAS', XYZ=1194.0,100.0,10.0, ORIENTATION=1.0,0.0,0.0/
&DEVC ID='XMIN', QUANTITY='RADIATIVE HEAT FLUX GAS', XYZ=0.0,100.0,10.0, ORIENTATION=-1.0,0.0,0.0/
&DEVC ID='YMIN', QUANTITY='RADIATIVE HEAT FLUX GAS', XYZ=500.0,0.0,10.0, ORIENTATION=0.0,-1.0,0.0/
&DEVC ID='YMAX', QUANTITY='RADIATIVE HEAT FLUX GAS', XYZ=500.0,494.0,10.0, ORIENTATION=0.0,1.0,0.0/
&DEVC ID='TIMER->OUT', QUANTITY='TIME', XYZ=227.0,-1.0,0.0, SETPOINT=1.36, INITIAL_STATE=.TRUE./

&MATL ID='STEEL',
      FYI='Drysdale, Intro to Fire Dynamics - ATF NIST Multi-Floor Validation',
      SPECIFIC_HEAT=0.46,
      CONDUCTIVITY=45.8,
      DENSITY=7850.0,
      EMISSIVITY=0.95/
&MATL ID='聚氨酯泡沫保温材料',
      SPECIFIC_HEAT=1.5,
      CONDUCTIVITY=0.038,
      DENSITY=31.7/
&MATL ID='黄木',
      SPECIFIC_HEAT=2.85,
      CONDUCTIVITY=0.14,
      DENSITY=640.0,
      HEAT_OF_COMBUSTION=1.28E4/
&MATL ID='涂层',
      SPECIFIC_HEAT=1.0,
      CONDUCTIVITY=0.2,
      DENSITY=1200.0,
      EMISSIVITY=0.95/
&MATL ID='ALUMINUM',
      SPECIFIC_HEAT=0.9,
      CONDUCTIVITY=160.0,
      DENSITY=2700.0/
&MATL ID='CONCRETE',
      FYI='NBSIR 88-3752 - ATF NIST Multi-Floor Validation',
      SPECIFIC_HEAT=1.04,
      CONDUCTIVITY=1.8,
      DENSITY=2280.0/
&MATL ID='瓦楞纸板',
      SPECIFIC_HEAT=1.4,
      CONDUCTIVITY=0.06,
      DENSITY=320.0,
      HEAT_OF_COMBUSTION=1.403E4/
&MATL ID='环氧树脂',
      SPECIFIC_HEAT=1.2,
      CONDUCTIVITY=0.2,
      DENSITY=1410.0,
      EMISSIVITY=0.95,
      HEAT_OF_COMBUSTION=1.64E4/
&MATL ID='工业油品',
      SPECIFIC_HEAT=1.8,
      CONDUCTIVITY=0.13,
      DENSITY=900.0,
      EMISSIVITY=0.95,
      HEAT_OF_COMBUSTION=4.3E4/
&MATL ID='异丙醇',
      SPECIFIC_HEAT=2.53,
      CONDUCTIVITY=0.135,
      DENSITY=785.0,
      EMISSIVITY=0.95,
      HEAT_OF_COMBUSTION=3.015E4/
&MATL ID='PVC',
      SPECIFIC_HEAT=1.289,
      CONDUCTIVITY=0.192,
      DENSITY=1380.0,
      HEAT_OF_COMBUSTION=2.09E4/

&SURF ID='墙',
      RGB=187,179,159,
      BACKING='VOID',
      MATL_ID(1,1)='STEEL',
      MATL_ID(2,1)='聚氨酯泡沫保温材料',
      MATL_ID(3,1)='STEEL',
      MATL_MASS_FRACTION(1,1)=1.0,
      MATL_MASS_FRACTION(2,1)=1.0,
      MATL_MASS_FRACTION(3,1)=1.0,
      THICKNESS(1:3)=1.0E-3,0.05,1.0E-3/
&SURF ID='OFFICE_FURNITURE_EQ',
      COLOR='BROWN',
      HRRPUA=300.0,
      RAMP_Q='OFFICE_FURNITURE_EQ_RAMP_Q',
      IGNITION_TEMPERATURE=330.0,
      BACKING='INSULATED',
      MATL_ID(1,1)='黄木',
      MATL_MASS_FRACTION(1,1)=1.0,
      THICKNESS(1)=0.02/
&RAMP ID='OFFICE_FURNITURE_EQ_RAMP_Q', T=0.0, F=0.0/
&RAMP ID='OFFICE_FURNITURE_EQ_RAMP_Q', T=1.0, F=1.0/
&RAMP ID='OFFICE_FURNITURE_EQ_RAMP_Q', T=546.0, F=1.0/
&RAMP ID='OFFICE_FURNITURE_EQ_RAMP_Q', T=547.0, F=0.0/
&SURF ID='IfcBuildingElementProxy',
      RGB=242,240,189,
      BACKING='VOID',
      MATL_ID(1,1)='涂层',
      MATL_ID(2,1)='ALUMINUM',
      MATL_MASS_FRACTION(1,1)=1.0,
      MATL_MASS_FRACTION(2,1)=1.0,
      THICKNESS(1:2)=5.0E-4,3.0E-3/
&SURF ID='门',
      RGB=26,86,210,
      BACKING='VOID',
      MATL_ID(1,1)='STEEL',
      MATL_MASS_FRACTION(1,1)=1.0,
      THICKNESS(1)=0.05/
&SURF ID='门 - 框架',
      RGB=118,70,51,
      BACKING='VOID',
      MATL_ID(1,1)='STEEL',
      MATL_MASS_FRACTION(1,1)=1.0,
      THICKNESS(1)=0.05/
&SURF ID='默认楼板',
      COLOR='GRAY 50',
      BACKING='VOID',
      MATL_ID(1,1)='CONCRETE',
      MATL_MASS_FRACTION(1,1)=1.0,
      THICKNESS(1)=0.2/
&SURF ID='CARD_EQ',
      COLOR='YELLOW',
      HRRPUA=180.0,
      RAMP_Q='CARD_EQ_RAMP_Q',
      IGNITION_TEMPERATURE=251.0,
      BACKING='INSULATED',
      MATL_ID(1,1)='瓦楞纸板',
      MATL_MASS_FRACTION(1,1)=1.0,
      THICKNESS(1)=0.086/
&RAMP ID='CARD_EQ_RAMP_Q', T=0.0, F=0.0/
&RAMP ID='CARD_EQ_RAMP_Q', T=1.0, F=1.0/
&RAMP ID='CARD_EQ_RAMP_Q', T=1287.0, F=1.0/
&RAMP ID='CARD_EQ_RAMP_Q', T=1288.0, F=0.0/
&SURF ID='EPOXY_EQ',
      COLOR='ORANGE',
      HRRPUA=400.0,
      RAMP_Q='EPOXY_EQ_RAMP_Q',
      IGNITION_TEMPERATURE=350.0,
      BACKING='INSULATED',
      MATL_ID(1,1)='环氧树脂',
      MATL_MASS_FRACTION(1,1)=1.0,
      THICKNESS(1)=0.02/
&RAMP ID='EPOXY_EQ_RAMP_Q', T=0.0, F=0.0/
&RAMP ID='EPOXY_EQ_RAMP_Q', T=1.0, F=1.0/
&RAMP ID='EPOXY_EQ_RAMP_Q', T=600.0, F=1.0/
&RAMP ID='EPOXY_EQ_RAMP_Q', T=601.0, F=0.0/
&SURF ID='INDUSTRIAL_OIL_EQ',
      COLOR='BROWN',
      HRRPUA=650.0,
      RAMP_Q='INDUSTRIAL_OIL_EQ_RAMP_Q',
      IGNITION_TEMPERATURE=300.0,
      BACKING='INSULATED',
      MATL_ID(1,1)='工业油品',
      MATL_MASS_FRACTION(1,1)=1.0,
      THICKNESS(1)=0.05/
&RAMP ID='INDUSTRIAL_OIL_EQ_RAMP_Q', T=0.0, F=0.0/
&RAMP ID='INDUSTRIAL_OIL_EQ_RAMP_Q', T=1.0, F=1.0/
&RAMP ID='INDUSTRIAL_OIL_EQ_RAMP_Q', T=2419.0, F=1.0/
&RAMP ID='INDUSTRIAL_OIL_EQ_RAMP_Q', T=2420.0, F=0.0/
&SURF ID='IPA_CLEANER_EQ',
      COLOR='RED',
      HRRPUA=600.0,
      RAMP_Q='IPA_CLEANER_EQ_RAMP_Q',
      IGNITION_TEMPERATURE=399.0,
      BACKING='INSULATED',
      MATL_ID(1,1)='异丙醇',
      MATL_MASS_FRACTION(1,1)=1.0,
      THICKNESS(1)=0.01/
&RAMP ID='IPA_CLEANER_EQ_RAMP_Q', T=0.0, F=0.0/
&RAMP ID='IPA_CLEANER_EQ_RAMP_Q', T=1.0, F=1.0/
&RAMP ID='IPA_CLEANER_EQ_RAMP_Q', T=600.0, F=1.0/
&RAMP ID='IPA_CLEANER_EQ_RAMP_Q', T=601.0, F=0.0/
&SURF ID='PVC_CABLE_EQ',
      COLOR='BLACK',
      HRRPUA=150.0,
      RAMP_Q='PVC_CABLE_EQ_RAMP_Q',
      IGNITION_TEMPERATURE=325.0,
      BACKING='INSULATED',
      MATL_ID(1,1)='PVC',
      MATL_MASS_FRACTION(1,1)=1.0,
      THICKNESS(1)=5.0E-3/
&RAMP ID='PVC_CABLE_EQ_RAMP_Q', T=0.0, F=0.0/
&RAMP ID='PVC_CABLE_EQ_RAMP_Q', T=1.0, F=1.0/
&RAMP ID='PVC_CABLE_EQ_RAMP_Q', T=577.0, F=1.0/
&RAMP ID='PVC_CABLE_EQ_RAMP_Q', T=578.0, F=0.0/
&SURF ID='RADIATION',
      COLOR='RED',
      NET_HEAT_FLUX=2000.000,
      EMISSIVITY=1.0/
&SURF ID='radiationz',
      RGB=255,102,0,
      NET_HEAT_FLUX=0.000,
      EMISSIVITY=1.0/

&OBST ID='Obstruction', XB=440.0,440.2,0.425,100.0,0.0,5.0, RGB=187,179,159, SURF_ID='墙'/ 
&OBST ID='Obstruction', XB=440.0,440.2,0.425,492.0,10.0,15.0, RGB=187,179,159, SURF_ID='墙'/ 
&OBST ID='Obstruction', XB=440.0,440.2,0.425,492.0,20.0,25.0, RGB=187,179,159, SURF_ID='墙'/ 
&OBST ID='Obstruction', XB=552.0,552.2,210.0,310.0,0.0,5.0, RGB=187,179,159, SURF_ID='墙'/ 
&OBST ID='Obstruction', XB=552.0,552.2,0.425,492.0,10.0,15.0, RGB=187,179,159, SURF_ID='墙'/ 
&OBST ID='Obstruction', XB=552.0,552.2,0.425,492.0,20.0,25.0, RGB=187,179,159, SURF_ID='墙'/ 
&OBST ID='Obstruction', XB=680.0,680.2,0.425,400.0,0.0,35.0, RGB=187,179,159, SURF_ID='墙'/ 
&OBST ID='Obstruction', XB=552.0,552.2,0.425,100.0,0.0,5.0, RGB=187,179,159, SURF_ID='墙'/ 
&OBST ID='Obstruction', XB=552.0,552.2,105.0,205.0,0.0,5.0, RGB=187,179,159, SURF_ID='墙'/ 
&OBST ID='Obstruction', XB=552.0,552.2,315.0,395.0,0.0,5.0, RGB=187,179,159, SURF_ID='墙'/ 
&OBST ID='Obstruction', XB=552.0,552.2,400.0,492.5,0.0,5.0, RGB=187,179,159, SURF_ID='墙'/ 
&OBST ID='Obstruction', XB=440.0,440.2,420.0,492.5,0.0,5.0, RGB=187,179,159, SURF_ID='墙'/ 
&OBST ID='Obstruction', XB=440.0,440.2,105.0,205.0,0.0,5.0, RGB=187,179,159, SURF_ID='墙'/ 
&OBST ID='Obstruction', XB=440.0,440.2,210.0,310.0,0.0,5.0, RGB=187,179,159, SURF_ID='墙'/ 
&OBST ID='Obstruction', XB=440.0,440.2,315.0,415.0,0.0,5.0, RGB=187,179,159, SURF_ID='墙'/ 
&OBST ID='办公家具组:办公家具组:379742', XB=168.0,174.0,402.0,404.0,1.0,3.0, COLOR='BROWN', SURF_ID='OFFICE_FURNITURE_EQ'/ 
&OBST ID='办公家具组:办公家具组:379742', XB=168.0,170.0,401.0,403.0,0.0,2.0, COLOR='BROWN', SURF_ID='OFFICE_FURNITURE_EQ'/ 
&OBST ID='办公家具组:办公家具组:379742', XB=168.0,170.0,403.0,405.0,0.0,2.0, COLOR='BROWN', SURF_ID='OFFICE_FURNITURE_EQ'/ 
&OBST ID='办公家具组:办公家具组:379795', XB=168.0,170.0,385.0,387.0,0.0,2.0, COLOR='BROWN', SURF_ID='OFFICE_FURNITURE_EQ'/ 
&OBST ID='办公家具组:办公家具组:379832', XB=168.0,174.0,368.0,370.0,1.0,3.0, COLOR='BROWN', SURF_ID='OFFICE_FURNITURE_EQ'/ 
&OBST ID='办公家具组:办公家具组:379832', XB=168.0,170.0,367.0,369.0,0.0,2.0, COLOR='BROWN', SURF_ID='OFFICE_FURNITURE_EQ'/ 
&OBST ID='办公家具组:办公家具组:379832', XB=168.0,170.0,369.0,371.0,0.0,2.0, COLOR='BROWN', SURF_ID='OFFICE_FURNITURE_EQ'/ 
&OBST ID='办公家具组:办公家具组:379987', XB=188.0,194.0,368.0,370.0,1.0,3.0, COLOR='BROWN', SURF_ID='OFFICE_FURNITURE_EQ'/ 
&OBST ID='办公家具组:办公家具组:380026', XB=210.0,216.0,368.0,370.0,1.0,3.0, COLOR='BROWN', SURF_ID='OFFICE_FURNITURE_EQ'/ 
&OBST ID='办公家具组:办公家具组:380047', XB=188.0,194.0,402.0,404.0,1.0,3.0, COLOR='BROWN', SURF_ID='OFFICE_FURNITURE_EQ'/ 
&OBST ID='办公家具组:办公家具组:380110', XB=210.0,216.0,402.0,404.0,1.0,3.0, COLOR='BROWN', SURF_ID='OFFICE_FURNITURE_EQ'/ 
&OBST ID='办公家具组:办公家具组:380572', XB=168.0,174.0,340.0,342.0,1.0,3.0, COLOR='BROWN', SURF_ID='OFFICE_FURNITURE_EQ'/ 
&OBST ID='办公家具组:办公家具组:380572', XB=168.0,170.0,339.0,341.0,0.0,2.0, COLOR='BROWN', SURF_ID='OFFICE_FURNITURE_EQ'/ 
&OBST ID='办公家具组:办公家具组:380572', XB=168.0,170.0,341.0,343.0,0.0,2.0, COLOR='BROWN', SURF_ID='OFFICE_FURNITURE_EQ'/ 
&OBST ID='办公家具组:办公家具组:380573', XB=168.0,170.0,323.0,325.0,0.0,2.0, COLOR='BROWN', SURF_ID='OFFICE_FURNITURE_EQ'/ 
&OBST ID='办公家具组:办公家具组:380573', XB=168.0,170.0,325.0,327.0,0.0,2.0, COLOR='BROWN', SURF_ID='OFFICE_FURNITURE_EQ'/ 
&OBST ID='办公家具组:办公家具组:380574', XB=168.0,174.0,306.0,308.0,1.0,3.0, COLOR='BROWN', SURF_ID='OFFICE_FURNITURE_EQ'/ 
&OBST ID='办公家具组:办公家具组:380574', XB=168.0,170.0,305.0,307.0,0.0,2.0, COLOR='BROWN', SURF_ID='OFFICE_FURNITURE_EQ'/ 
&OBST ID='办公家具组:办公家具组:380574', XB=168.0,170.0,307.0,309.0,0.0,2.0, COLOR='BROWN', SURF_ID='OFFICE_FURNITURE_EQ'/ 
&OBST ID='办公家具组:办公家具组:380577', XB=188.0,194.0,306.0,308.0,1.0,3.0, COLOR='BROWN', SURF_ID='OFFICE_FURNITURE_EQ'/ 
&OBST ID='办公家具组:办公家具组:380578', XB=210.0,216.0,306.0,308.0,1.0,3.0, COLOR='BROWN', SURF_ID='OFFICE_FURNITURE_EQ'/ 
&OBST ID='办公家具组:办公家具组:380579', XB=188.0,194.0,340.0,342.0,1.0,3.0, COLOR='BROWN', SURF_ID='OFFICE_FURNITURE_EQ'/ 
&OBST ID='办公家具组:办公家具组:380580', XB=210.0,216.0,340.0,342.0,1.0,3.0, COLOR='BROWN', SURF_ID='OFFICE_FURNITURE_EQ'/ 
&OBST ID='常规模型 1:常规模型 1:349990 [Segment]', XB=256.0,276.0,198.0,200.0,0.0,12.0, RGB=242,240,189, SURF_ID='IfcBuildingElementProxy'/ 
&OBST ID='常规模型 1:常规模型 1:349990 [Segment]', XB=264.0,274.0,218.0,220.0,0.0,12.0, RGB=242,240,189, SURF_ID='IfcBuildingElementProxy'/ 
&OBST ID='常规模型 1:常规模型 1:349990 [Segment]', XB=264.0,272.0,220.0,222.0,0.0,12.0, RGB=242,240,189, SURF_ID='IfcBuildingElementProxy'/ 
&OBST ID='常规模型 1:常规模型 1:349990 [Segment]', XB=262.0,270.0,222.0,224.0,0.0,12.0, RGB=242,240,189, SURF_ID='IfcBuildingElementProxy'/ 
&OBST ID='常规模型 1:常规模型 1:349990 [Segment]', XB=260.0,270.0,224.0,226.0,0.0,12.0, RGB=242,240,189, SURF_ID='IfcBuildingElementProxy'/ 
&OBST ID='常规模型 1:常规模型 1:349990 [Segment]', XB=258.0,268.0,226.0,228.0,0.0,12.0, RGB=242,240,189, SURF_ID='IfcBuildingElementProxy'/ 
&OBST ID='常规模型 1:常规模型 1:349990 [Segment]', XB=248.0,266.0,228.0,230.0,0.0,12.0, RGB=242,240,189, SURF_ID='IfcBuildingElementProxy'/ 
&OBST ID='常规模型 1:常规模型 1:349990 [Segment]', XB=250.0,258.0,196.0,198.0,0.0,12.0, RGB=242,240,189, SURF_ID='IfcBuildingElementProxy'/ 
&OBST ID='常规模型 1:常规模型 1:349990 [Segment]', XB=250.0,264.0,230.0,232.0,0.0,12.0, RGB=242,240,189, SURF_ID='IfcBuildingElementProxy'/ 
&OBST ID='常规模型 1:常规模型 1:349990 [Segment]', XB=258.0,264.0,236.0,238.0,0.0,12.0, RGB=242,240,189, SURF_ID='IfcBuildingElementProxy'/ 
&OBST ID='常规模型 1:常规模型 1:349990 [Segment]', XB=260.0,264.0,238.0,240.0,0.0,12.0, RGB=242,240,189, SURF_ID='IfcBuildingElementProxy'/ 
&OBST ID='常规模型 1:常规模型 1:349990 [Segment]', XB=262.0,264.0,240.0,242.0,0.0,12.0, RGB=242,240,189, SURF_ID='IfcBuildingElementProxy'/ 
&OBST ID='常规模型 1:常规模型 1:349990 [Segment]', XB=254.0,262.0,232.0,234.0,0.0,12.0, RGB=242,240,189, SURF_ID='IfcBuildingElementProxy'/ 
&OBST ID='常规模型 1:常规模型 1:349990 [Segment]', XB=256.0,262.0,234.0,236.0,0.0,12.0, RGB=242,240,189, SURF_ID='IfcBuildingElementProxy'/ 
&OBST ID='常规模型 1:常规模型 1:349990 [Segment]', XB=266.0,276.0,216.0,218.0,0.0,12.0, RGB=242,240,189, SURF_ID='IfcBuildingElementProxy'/ 
&OBST ID='常规模型 1:常规模型 1:349990 [Segment]', XB=274.0,276.0,196.0,198.0,0.0,12.0, RGB=242,240,189, SURF_ID='IfcBuildingElementProxy'/ 
&OBST ID='常规模型 1:常规模型 1:349990 [Segment]', XB=290.0,300.0,188.0,190.0,0.0,12.0, RGB=242,240,189, SURF_ID='IfcBuildingElementProxy'/ 
&OBST ID='常规模型 1:常规模型 1:349990 [Segment]', XB=288.0,298.0,190.0,192.0,0.0,12.0, RGB=242,240,189, SURF_ID='IfcBuildingElementProxy'/ 
&OBST ID='常规模型 1:常规模型 1:349990 [Segment]', XB=286.0,296.0,192.0,194.0,0.0,12.0, RGB=242,240,189, SURF_ID='IfcBuildingElementProxy'/ 
&OBST ID='常规模型 1:常规模型 1:349990 [Segment]', XB=286.0,294.0,194.0,196.0,0.0,12.0, RGB=242,240,189, SURF_ID='IfcBuildingElementProxy'/ 
! ... 763 like lines cut
&OBST ID='单扇 - 与墙齐:1:380878', XB=210.0,216.0,413.9,414.1,0.0,10.0, RGB=26,86,210, SURF_ID='门'/ 
&OBST ID='单扇 - 与墙齐:1:380980', XB=210.0,216.0,391.9,392.1,0.0,10.0, RGB=26,86,210, SURF_ID='门'/ 
&OBST ID='单扇 - 与墙齐:1:381202', XB=184.0,190.0,288.0,288.2,0.0,10.0, RGB=26,86,210, SURF_ID='门'/ 
&OBST ID='单扇 - 与墙齐:1:381224', XB=134.0,140.0,288.0,288.2,0.0,10.0, RGB=26,86,210, SURF_ID='门'/ 
&OBST ID='单扇 - 与墙齐:1:381326', XB=90.0,96.0,287.9,288.1,0.0,10.0, RGB=26,86,210, SURF_ID='门'/ 
&OBST ID='单扇 - 与墙齐:1:381372', XB=134.0,140.0,264.0,266.0,9.9,10.1, RGB=118,70,51, SURF_ID='门 - 框架'/ 
&OBST ID='单扇 - 与墙齐:1:381372', XB=134.0,140.0,265.9,266.1,0.0,10.0, RGB=26,86,210, SURF_ID='门'/ 
&OBST ID='单扇 - 与墙齐:1:381372', XB=133.9,134.1,264.0,266.0,0.0,10.0, RGB=118,70,51, SURF_ID='门 - 框架'/ 
&OBST ID='单扇 - 与墙齐:1:381372', XB=139.9,140.1,264.0,266.0,0.0,10.0, RGB=118,70,51, SURF_ID='门 - 框架'/ 
&OBST ID='单扇 - 与墙齐:1:381404', XB=164.0,170.0,264.0,264.2,9.9,10.1, RGB=118,70,51, SURF_ID='门 - 框架'/ 
&OBST ID='单扇 - 与墙齐:1:381404', XB=164.0,170.0,265.9,266.1,0.0,10.0, RGB=26,86,210, SURF_ID='门'/ 
&OBST ID='单扇 - 与墙齐:1:381404', XB=163.9,164.1,264.0,266.0,0.0,10.0, RGB=118,70,51, SURF_ID='门 - 框架'/ 
&OBST ID='单扇 - 与墙齐:1:381404', XB=169.9,170.1,264.0,266.0,0.0,10.0, RGB=118,70,51, SURF_ID='门 - 框架'/ 
&OBST ID='单扇 - 与墙齐:1:381434', XB=200.0,206.0,264.0,266.0,9.9,10.1, RGB=118,70,51, SURF_ID='门 - 框架'/ 
&OBST ID='单扇 - 与墙齐:1:381434', XB=200.0,206.0,265.9,266.1,0.0,10.0, RGB=26,86,210, SURF_ID='门'/ 
&OBST ID='单扇 - 与墙齐:1:381434', XB=199.9,200.1,264.0,266.0,0.0,10.0, RGB=118,70,51, SURF_ID='门 - 框架'/ 
&OBST ID='单扇 - 与墙齐:1:381434', XB=205.9,206.1,264.0,266.0,0.0,10.0, RGB=118,70,51, SURF_ID='门 - 框架'/ 
&OBST ID='单扇 - 与墙齐:1:381450', XB=18.0,24.0,467.9,468.1,0.0,10.0, RGB=26,86,210, SURF_ID='门'/ 
&OBST ID='单扇 - 与墙齐:1:381578', XB=84.0,90.0,467.9,468.1,0.0,10.0, RGB=26,86,210, SURF_ID='门'/ 
&OBST ID='单扇 - 与墙齐:1:381594', XB=108.0,114.0,467.9,468.1,0.0,10.0, RGB=26,86,210, SURF_ID='门'/ 
&OBST ID='单扇 - 与墙齐:1:381616', XB=160.0,162.0,62.0,68.0,0.0,10.0, RGB=26,86,210, SURF_ID='门'/ 
&OBST ID='单扇 - 与墙齐:1:381714', XB=222.0,224.0,62.0,68.0,0.0,10.0, RGB=26,86,210, SURF_ID='门'/ 
&OBST ID='单扇 - 与墙齐:1:381738', XB=82.0,88.0,119.9,120.1,0.0,10.0, RGB=26,86,210, SURF_ID='门'/ 
&OBST ID='单扇 - 与墙齐:1:381810', XB=54.0,60.0,-0.1,0.1,0.0,10.0, RGB=26,86,210, SURF_ID='门'/ 
&OBST ID='单扇 - 与墙齐:1:381854', XB=86.0,92.0,-0.1,0.1,0.0,10.0, RGB=26,86,210, SURF_ID='门'/ 
&OBST ID='单扇 - 与墙齐:1:381890', XB=128.0,130.0,-0.1,0.1,0.0,10.0, RGB=118,70,51, SURF_ID='门 - 框架'/ 
&OBST ID='单扇 - 与墙齐:1:382330', XB=1102.0,1108.0,143.9,144.1,0.0,10.0, RGB=26,86,210, SURF_ID='门'/ 
&OBST ID='单扇 - 与墙齐:1:382356', XB=1136.0,1142.0,143.9,144.1,0.0,10.0, RGB=26,86,210, SURF_ID='门'/ 
&OBST ID='单扇 - 与墙齐:1:382775', XB=1166.0,1172.0,143.9,144.1,0.0,10.0, RGB=26,86,210, SURF_ID='门'/ 
&OBST ID='滑升门:1:384182', XB=452.0,554.0,0.0,2.0,29.9,30.1, RGB=26,86,210, SURF_ID='门'/ 
&OBST ID='滑升门:1:384418', XB=340.0,440.0,0.0,2.0,29.9,30.1, RGB=26,86,210, SURF_ID='门'/ 
&OBST ID='滑升门:1:384426', XB=230.0,330.0,0.0,2.0,29.9,30.1, RGB=26,86,210, SURF_ID='门'/ 
&OBST ID='滑升门:1:384426', XB=230.0,330.0,-0.1,0.1,0.0,30.0, RGB=26,86,210, SURF_ID='门'/ 
&OBST ID='滑升门:1:384434', XB=566.0,668.0,0.0,2.0,29.9,30.1, RGB=26,86,210, SURF_ID='门'/ 
&OBST ID='滑升门:1:384434', XB=568.0,668.0,-0.1,0.1,0.0,30.0, RGB=26,86,210, SURF_ID='门'/ 
&OBST ID='滑升门:1:384442', XB=692.0,794.0,0.0,2.0,29.9,30.1, RGB=26,86,210, SURF_ID='门'/ 
&OBST ID='滑升门:1:384450', XB=826.0,926.0,0.0,2.0,29.9,30.1, RGB=26,86,210, SURF_ID='门'/ 
&OBST ID='滑升门:1:384450', XB=826.0,926.0,-0.1,0.1,0.0,30.0, RGB=26,86,210, SURF_ID='门'/ 
&OBST ID='单扇 - 与墙齐:1:385170', XB=188.0,194.0,51.9,52.1,0.0,10.0, RGB=26,86,210, SURF_ID='门'/ 
&OBST ID='单扇 - 与墙齐:1:385170', XB=194.0,196.0,49.9,50.1,0.0,10.0, RGB=118,70,51, SURF_ID='门 - 框架'/ 
&OBST ID='单扇 - 与墙齐:1:385170', XB=194.0,196.0,51.9,52.1,0.0,10.0, RGB=118,70,51, SURF_ID='门 - 框架'/ 
&OBST ID='单扇 - 与墙齐:1:385200', XB=-0.1,0.1,448.0,454.0,0.0,10.0, RGB=26,86,210, SURF_ID='门'/ 
&OBST ID='单扇 - 与墙齐:1:385260', XB=-0.1,0.1,352.0,358.0,0.0,10.0, RGB=26,86,210, SURF_ID='门'/ 
&OBST ID='单扇 - 与墙齐:1:385505', XB=69.9,70.1,176.0,182.0,0.0,10.0, RGB=26,86,210, SURF_ID='门'/ 
&OBST ID='单扇 - 与墙齐:1:385559', XB=35.9,36.1,100.0,102.0,0.0,10.0, RGB=118,70,51, SURF_ID='门 - 框架'/ 
&OBST ID='单扇 - 与墙齐:1:385623', XB=35.9,36.1,28.0,34.0,0.0,10.0, RGB=26,86,210, SURF_ID='门'/ 
&OBST ID='单扇 - 与墙齐:1:385810', XB=276.0,278.0,493.9,494.1,0.0,10.0, RGB=118,70,51, SURF_ID='门 - 框架'/ 
&OBST ID='单扇 - 与墙齐:1:385810', XB=278.0,284.0,493.9,494.1,0.0,10.0, RGB=26,86,210, SURF_ID='门'/ 
&OBST ID='单扇 - 与墙齐:1:385836', XB=312.0,318.0,493.9,494.1,0.0,10.0, RGB=26,86,210, SURF_ID='门'/ 
&OBST ID='滑升门:1:385894', XB=450.0,550.0,492.0,494.0,29.9,30.1, RGB=26,86,210, SURF_ID='门'/ 
&OBST ID='单扇 - 与墙齐:1:385954', XB=372.0,374.0,493.9,494.1,0.0,10.0, RGB=118,70,51, SURF_ID='门 - 框架'/ 
&OBST ID='单扇 - 与墙齐:1:385994', XB=416.0,422.0,493.9,494.1,0.0,10.0, RGB=26,86,210, SURF_ID='门'/ 
&OBST ID='单扇 - 与墙齐:1:386131', XB=710.0,716.0,399.9,400.1,0.0,10.0, RGB=26,86,210, SURF_ID='门'/ 
&OBST ID='单扇 - 与墙齐:1:386227', XB=786.0,792.0,399.9,400.1,0.0,10.0, RGB=26,86,210, SURF_ID='门'/ 
&OBST ID='单扇 - 与墙齐:1:386227', XB=792.0,794.0,399.9,400.1,0.0,10.0, RGB=118,70,51, SURF_ID='门 - 框架'/ 
&OBST ID='单扇 - 与墙齐:1:386299', XB=900.0,906.0,399.9,400.1,0.0,10.0, RGB=26,86,210, SURF_ID='门'/ 
&OBST ID='单扇 - 与墙齐:1:386299', XB=906.0,908.0,399.9,400.1,0.0,10.0, RGB=118,70,51, SURF_ID='门 - 框架'/ 
&OBST ID='滑升门:2:386335', XB=830.0,850.0,400.0,402.0,15.9,16.1, RGB=26,86,210, SURF_ID='门'/ 
&OBST ID='单扇 - 与墙齐:1:394586', XB=159.9,160.1,428.0,434.0,0.0,10.0, RGB=26,86,210, SURF_ID='门'/ 
&OBST ID='单扇 - 与墙齐:1:394634', XB=159.9,160.1,360.0,366.0,0.0,10.0, RGB=26,86,210, SURF_ID='门'/ 
&OBST ID='单扇 - 与墙齐:1:394704', XB=159.9,160.1,304.0,310.0,0.0,10.0, RGB=26,86,210, SURF_ID='门'/ 
&OBST ID='滑升门:3:395194', XB=200.0,210.0,467.9,468.1,0.0,10.0, RGB=26,86,210, SURF_ID='门'/ 
&OBST ID='楼板:常规 - 150mm:386768', XB=0.0,122.0,328.0,468.0,0.0,0.0, SURF_ID='默认楼板'/ 
&OBST ID='楼板:常规 - 150mm:386768:2', XB=36.0,160.0,0.0,52.0,0.0,0.0, SURF_ID='默认楼板'/ 
&OBST ID='楼板:常规 - 150mm:386768:2', XB=36.0,160.0,80.0,120.0,0.0,0.0, SURF_ID='默认楼板'/ 
&OBST ID='楼板:常规 - 150mm:386768:2', XB=36.0,944.0,52.0,80.0,0.0,0.0, SURF_ID='默认楼板'/ 
&OBST ID='楼板:常规 - 150mm:386768:2', XB=70.0,944.0,148.0,288.0,0.0,0.0, SURF_ID='默认楼板'/ 
&OBST ID='楼板:常规 - 150mm:386768:2', XB=162.0,678.0,400.0,468.0,0.0,0.0, SURF_ID='默认楼板'/ 
&OBST ID='楼板:常规 - 150mm:386768:2', XB=162.0,944.0,288.0,318.0,0.0,0.0, SURF_ID='默认楼板'/ 
&OBST ID='楼板:常规 - 150mm:386768:2', XB=162.0,944.0,358.0,400.0,0.0,0.0, SURF_ID='默认楼板'/ 
&OBST ID='楼板:常规 - 150mm:386768:2', XB=162.0,1172.0,318.0,358.0,0.0,0.0, SURF_ID='默认楼板'/ 
&OBST ID='楼板:常规 - 150mm:386768:2', XB=224.0,678.0,468.0,494.0,0.0,0.0, SURF_ID='默认楼板'/ 
&OBST ID='楼板:常规 - 150mm:386768:2', XB=224.0,944.0,0.0,52.0,0.0,0.0, SURF_ID='默认楼板'/ 
&OBST ID='楼板:常规 - 150mm:386768:2', XB=224.0,944.0,80.0,148.0,0.0,0.0, SURF_ID='默认楼板'/ 
&OBST ID='楼板:常规 - 150mm:386768:2', XB=1030.0,1172.0,280.0,318.0,0.0,0.0, SURF_ID='默认楼板'/ 
&OBST ID='楼板:常规 - 150mm:386768:2', XB=1030.0,1172.0,358.0,400.0,0.0,0.0, SURF_ID='默认楼板'/ 
&OBST ID='楼板:常规 - 150mm:386768:2', XB=1056.0,1194.0,144.0,280.0,0.0,0.0, SURF_ID='默认楼板'/ 
&OBST ID='基本墙:常规 - 200mm:380267', XB=162.0,182.0,374.0,376.0,0.0,18.0, RGB=187,179,159, SURF_ID='墙'/ 
&OBST ID='基本墙:常规 - 200mm:380267', XB=182.0,188.0,374.0,376.0,10.0,18.0, RGB=187,179,159, SURF_ID='墙'/ 
&OBST ID='基本墙:常规 - 200mm:380267', XB=188.0,222.0,374.0,376.0,0.0,18.0, RGB=187,179,159, SURF_ID='墙'/ 
&OBST ID='基本墙:常规 - 200mm:380583', XB=162.0,180.0,314.0,314.2,0.0,18.0, RGB=187,179,159, SURF_ID='墙'/ 
&OBST ID='基本墙:常规 - 200mm:380583', XB=180.0,186.0,314.0,314.2,10.0,18.0, RGB=187,179,159, SURF_ID='墙'/ 
&OBST ID='基本墙:常规 - 200mm:380583', XB=186.0,222.0,314.0,314.2,0.0,18.0, RGB=187,179,159, SURF_ID='墙'/ 
&OBST ID='基本墙:常规 - 200mm:336275', XB=222.0,242.0,493.9,494.1,0.0,36.0, RGB=187,179,159, SURF_ID='墙'/ 
&OBST ID='基本墙:常规 - 200mm:336275', XB=242.0,248.0,493.9,494.1,10.0,36.0, RGB=187,179,159, SURF_ID='墙'/ 
&OBST ID='基本墙:常规 - 200mm:336275', XB=248.0,278.0,493.9,494.1,0.0,36.0, RGB=187,179,159, SURF_ID='墙'/ 
&OBST ID='基本墙:常规 - 200mm:336275', XB=278.0,284.0,493.9,494.1,10.0,36.0, RGB=187,179,159, SURF_ID='墙'/ 
&OBST ID='基本墙:常规 - 200mm:336275', XB=284.0,312.0,493.9,494.1,0.0,36.0, RGB=187,179,159, SURF_ID='墙'/ 
&OBST ID='基本墙:常规 - 200mm:336275', XB=312.0,318.0,493.9,494.1,10.0,36.0, RGB=187,179,159, SURF_ID='墙'/ 
&OBST ID='基本墙:常规 - 200mm:336275', XB=318.0,366.0,493.9,494.1,0.0,36.0, RGB=187,179,159, SURF_ID='墙'/ 
&OBST ID='基本墙:常规 - 200mm:336275', XB=366.0,372.0,493.9,494.1,10.0,36.0, RGB=187,179,159, SURF_ID='墙'/ 
&OBST ID='基本墙:常规 - 200mm:336275', XB=372.0,416.0,493.9,494.1,0.0,36.0, RGB=187,179,159, SURF_ID='墙'/ 
&OBST ID='基本墙:常规 - 200mm:336275', XB=416.0,422.0,493.9,494.1,10.0,36.0, RGB=187,179,159, SURF_ID='墙'/ 
&OBST ID='基本墙:常规 - 200mm:336275', XB=422.0,450.0,493.9,494.1,0.0,36.0, RGB=187,179,159, SURF_ID='墙'/ 
&OBST ID='基本墙:常规 - 200mm:336275', XB=450.0,550.0,493.9,494.1,30.0,36.0, RGB=187,179,159, SURF_ID='墙'/ 
&OBST ID='基本墙:常规 - 200mm:336275', XB=550.0,680.0,493.9,494.1,0.0,36.0, RGB=187,179,159, SURF_ID='墙'/ 
&OBST ID='基本墙:常规 - 200mm:336432', XB=678.0,710.0,399.9,400.1,0.0,36.0, RGB=187,179,159, SURF_ID='墙'/ 
! ... 143 like lines cut
&OBST ID='楼板:常规 - 150mm:391211', XB=36.0,160.0,0.0,52.0,34.0,36.0, SURF_ID='默认楼板'/ 
&OBST ID='楼板:常规 - 150mm:391211', XB=36.0,160.0,80.0,120.0,34.0,36.0, SURF_ID='默认楼板'/ 
&OBST ID='楼板:常规 - 150mm:391211', XB=36.0,944.0,52.0,80.0,34.0,36.0, SURF_ID='默认楼板'/ 
&OBST ID='楼板:常规 - 150mm:391211', XB=224.0,678.0,400.0,494.0,34.0,36.0, SURF_ID='默认楼板'/ 
&OBST ID='楼板:常规 - 150mm:391211', XB=224.0,944.0,0.0,52.0,34.0,36.0, SURF_ID='默认楼板'/ 
&OBST ID='楼板:常规 - 150mm:391211', XB=224.0,944.0,80.0,321.190546,34.0,36.0, SURF_ID='默认楼板'/ 
&OBST ID='楼板:常规 - 150mm:391211', XB=224.0,944.0,358.0,400.0,34.0,36.0, SURF_ID='默认楼板'/ 
&OBST ID='楼板:常规 - 150mm:391211', XB=224.0,1172.0,318.0,358.0,34.0,36.0, SURF_ID='默认楼板'/ 
&OBST ID='楼板:常规 - 150mm:391211', XB=1030.0,1172.0,280.0,318.0,34.0,36.0, SURF_ID='默认楼板'/ 
&OBST ID='楼板:常规 - 150mm:391211', XB=1030.0,1172.0,358.0,400.0,34.0,36.0, SURF_ID='默认楼板'/ 
&OBST ID='楼板:常规 - 150mm:391211', XB=1056.0,1194.0,144.0,280.0,34.0,36.0, SURF_ID='默认楼板'/ 
&OBST ID='楼板:常规 - 150mm:392288', XB=0.0,122.0,328.0,468.0,18.0,18.0, SURF_ID='默认楼板'/ 
&OBST ID='楼板:常规 - 150mm:392288:2', XB=70.0,222.0,148.0,288.0,18.0,18.0, SURF_ID='默认楼板'/ 
&OBST ID='楼板:常规 - 150mm:392288:2', XB=162.0,222.0,288.0,468.0,18.0,18.0, SURF_ID='默认楼板'/ 
&OBST ID='CARD_STORAGE_01', XB=39.0,63.0,59.0,67.0,0.0,4.0, SURF_ID='CARD_EQ'/ 
&OBST ID='CARD_STORAGE_02', XB=67.0,91.0,359.0,367.0,0.0,4.0, SURF_ID='CARD_EQ'/ 
&OBST ID='CARD_STORAGE_03', XB=95.0,119.0,359.0,367.0,0.0,4.0, SURF_ID='CARD_EQ'/ 
&OBST ID='CARD_STORAGE_04', XB=123.0,147.0,59.0,67.0,0.0,4.0, SURF_ID='CARD_EQ'/ 
&OBST ID='CARD_STORAGE_05', XB=39.0,63.0,83.0,91.0,0.0,4.0, SURF_ID='CARD_EQ'/ 
&OBST ID='CARD_STORAGE_06', XB=67.0,91.0,383.0,391.0,0.0,4.0, SURF_ID='CARD_EQ'/ 
&OBST ID='CARD_STORAGE_07', XB=95.0,119.0,383.0,391.0,0.0,4.0, SURF_ID='CARD_EQ'/ 
&OBST ID='CARD_STORAGE_08', XB=123.0,147.0,83.0,91.0,0.0,4.0, SURF_ID='CARD_EQ'/ 
&OBST ID='CARD_STORAGE_09', XB=799.0,823.0,379.0,387.0,0.0,4.0, SURF_ID='CARD_EQ'/ 
&OBST ID='CARD_STORAGE_10', XB=737.0,761.0,379.0,387.0,0.0,4.0, SURF_ID='CARD_EQ'/ 
&OBST ID='CARD_STORAGE_11', XB=855.0,879.0,389.0,397.0,0.0,4.0, SURF_ID='CARD_EQ'/ 
&OBST ID='CARD_STORAGE_12', XB=783.0,807.0,359.0,367.0,0.0,4.0, SURF_ID='CARD_EQ'/ 
&OBST ID='CARD_STORAGE_13', XB=811.0,835.0,359.0,367.0,0.0,4.0, SURF_ID='CARD_EQ'/ 
&OBST ID='CARD_STORAGE_14', XB=839.0,863.0,359.0,367.0,0.0,4.0, SURF_ID='CARD_EQ'/ 
&OBST ID='CARD_STORAGE_15', XB=79.0,103.0,189.0,197.0,0.0,4.0, SURF_ID='CARD_EQ'/ 
&OBST ID='CARD_STORAGE_16', XB=77.0,101.0,169.0,177.0,0.0,4.0, SURF_ID='CARD_EQ'/ 
&OBST ID='CARD_STORAGE_17', XB=95.0,119.0,159.0,167.0,0.0,4.0, SURF_ID='CARD_EQ'/ 
&OBST ID='CARD_STORAGE_18', XB=123.0,147.0,159.0,167.0,0.0,4.0, SURF_ID='CARD_EQ'/ 
&OBST ID='CARD_STORAGE_19', XB=479.0,503.0,269.0,277.0,0.0,4.0, SURF_ID='CARD_EQ'/ 
&OBST ID='CARD_STORAGE_20', XB=527.0,551.0,279.0,287.0,0.0,4.0, SURF_ID='CARD_EQ'/ 
! ... 4 like lines cut
&OBST ID='EPOXY_COMPOSITE_01', XB=239.0,255.0,39.0,47.0,0.0,4.0, SURF_ID='EPOXY_EQ'/ 
&OBST ID='EPOXY_COMPOSITE_02', XB=263.0,279.0,39.0,47.0,0.0,4.0, SURF_ID='EPOXY_EQ'/ 
&OBST ID='EPOXY_COMPOSITE_03', XB=287.0,303.0,39.0,47.0,0.0,4.0, SURF_ID='EPOXY_EQ'/ 
&OBST ID='EPOXY_COMPOSITE_04', XB=239.0,255.0,327.0,335.0,0.0,4.0, SURF_ID='EPOXY_EQ'/ 
&OBST ID='EPOXY_COMPOSITE_05', XB=263.0,279.0,327.0,335.0,0.0,4.0, SURF_ID='EPOXY_EQ'/ 
&OBST ID='EPOXY_COMPOSITE_06', XB=767.0,783.0,307.0,323.0,0.0,4.0, SURF_ID='EPOXY_EQ'/ 
&OBST ID='EPOXY_COMPOSITE_07', XB=791.0,807.0,327.0,343.0,0.0,4.0, SURF_ID='EPOXY_EQ'/ 
&OBST ID='EPOXY_COMPOSITE_08', XB=599.0,615.0,161.0,177.0,0.0,4.0, SURF_ID='EPOXY_EQ'/ 
&OBST ID='INDUSTRIAL_OIL_01', XB=499.0,507.0,39.0,47.0,0.0,4.0, SURF_ID='INDUSTRIAL_OIL_EQ'/ 
&OBST ID='INDUSTRIAL_OIL_02', XB=515.0,523.0,39.0,47.0,0.0,4.0, SURF_ID='INDUSTRIAL_OIL_EQ'/ 
&OBST ID='INDUSTRIAL_OIL_03', XB=489.0,497.0,319.0,327.0,0.0,4.0, SURF_ID='INDUSTRIAL_OIL_EQ'/ 
&OBST ID='INDUSTRIAL_OIL_04', XB=525.0,533.0,319.0,327.0,0.0,4.0, SURF_ID='INDUSTRIAL_OIL_EQ'/ 
&OBST ID='INDUSTRIAL_OIL_05', XB=923.0,931.0,159.0,167.0,0.0,4.0, SURF_ID='INDUSTRIAL_OIL_EQ'/ 
&OBST ID='INDUSTRIAL_OIL_06', XB=929.0,937.0,199.0,207.0,0.0,4.0, SURF_ID='INDUSTRIAL_OIL_EQ'/ 
&OBST ID='IPA_CLEANER_01', XB=39.0,47.0,39.0,47.0,0.0,4.0, SURF_ID='IPA_CLEANER_EQ'/ 
&OBST ID='IPA_CLEANER_02', XB=91.0,99.0,39.0,47.0,0.0,4.0, SURF_ID='IPA_CLEANER_EQ'/ 
&OBST ID='IPA_CLEANER_03', XB=709.0,717.0,39.0,47.0,0.0,4.0, SURF_ID='IPA_CLEANER_EQ'/ 
&OBST ID='IPA_CLEANER_04', XB=755.0,763.0,39.0,47.0,0.0,4.0, SURF_ID='IPA_CLEANER_EQ'/ 
&OBST ID='IPA_CLEANER_05', XB=919.0,927.0,39.0,47.0,0.0,4.0, SURF_ID='IPA_CLEANER_EQ'/ 
&OBST ID='PVC_CABLE_ZONE_01', XB=179.0,219.0,187.0,195.0,0.0,4.0, SURF_ID='PVC_CABLE_EQ'/ 
&OBST ID='PVC_CABLE_ZONE_02', XB=179.0,219.0,267.0,275.0,0.0,4.0, SURF_ID='PVC_CABLE_EQ'/ 
&OBST ID='PVC_CABLE_ZONE_03', XB=387.0,427.0,147.0,155.0,0.0,4.0, SURF_ID='PVC_CABLE_EQ'/ 
&OBST ID='PVC_CABLE_ZONE_04', XB=387.0,427.0,267.0,275.0,0.0,4.0, SURF_ID='PVC_CABLE_EQ'/ 
&OBST ID='PVC_CABLE_ZONE_05', XB=799.0,839.0,147.0,155.0,0.0,4.0, SURF_ID='PVC_CABLE_EQ'/ 
&OBST ID='PVC_CABLE_ZONE_06', XB=799.0,839.0,267.0,275.0,0.0,4.0, SURF_ID='PVC_CABLE_EQ'/ 
&OBST ID='PVC_CABLE_ZONE_07', XB=1037.0,1077.0,347.0,355.0,0.0,4.0, SURF_ID='PVC_CABLE_EQ'/ 
&OBST ID='PVC_CABLE_ZONE_08', XB=1059.0,1099.0,167.0,175.0,0.0,4.0, SURF_ID='PVC_CABLE_EQ'/ 
&OBST ID='PVC_CABLE_ZONE_09', XB=1039.0,1079.0,327.0,335.0,0.0,4.0, SURF_ID='PVC_CABLE_EQ'/ 

&VENT ID='Mesh Vent: Mesh05 [XMAX]', SURF_ID='RADIATION', XB=1195.0,1195.0,-1.0,495.0,0.0,40.0, DEVC_ID='TIMER->OUT'/ 
&VENT ID='Mesh Vent: Mesh05 [YMAX]', SURF_ID='OPEN', XB=951.0,1195.0,495.0,495.0,0.0,40.0/ 
&VENT ID='Mesh Vent: Mesh05 [YMIN]', SURF_ID='OPEN', XB=951.0,1195.0,-1.0,-1.0,0.0,40.0/ 
&VENT ID='Mesh Vent: Mesh05 [ZMAX]', SURF_ID='radiationz', XB=951.0,1195.0,-1.0,495.0,40.0,40.0, DEVC_ID='TIMER->OUT'/ 
&VENT ID='Mesh Vent: Mesh05 [ZMIN]', SURF_ID='OPEN', XB=951.0,1195.0,-1.0,495.0,0.0,0.0/ 
&VENT ID='Mesh Vent: Mesh01 [XMIN]', SURF_ID='OPEN', XB=-1.0,-1.0,-1.0,495.0,0.0,40.0/ 
&VENT ID='Mesh Vent: Mesh01 [YMAX]', SURF_ID='OPEN', XB=-1.0,227.0,495.0,495.0,0.0,40.0/ 
&VENT ID='Mesh Vent: Mesh01 [YMIN]', SURF_ID='OPEN', XB=-1.0,227.0,-1.0,-1.0,0.0,40.0/ 
&VENT ID='Mesh Vent: Mesh01 [ZMAX]', SURF_ID='radiationz', XB=-1.0,227.0,-1.0,495.0,40.0,40.0, DEVC_ID='TIMER->OUT'/ 
&VENT ID='Mesh Vent: Mesh01 [ZMIN]', SURF_ID='OPEN', XB=-1.0,227.0,-1.0,495.0,0.0,0.0/ 
&VENT ID='Mesh Vent: Mesh02 [YMAX]', SURF_ID='OPEN', XB=227.0,451.0,495.0,495.0,0.0,40.0/ 
&VENT ID='Mesh Vent: Mesh02 [YMIN]', SURF_ID='OPEN', XB=227.0,451.0,-1.0,-1.0,0.0,40.0/ 
&VENT ID='Mesh Vent: Mesh02 [ZMAX]', SURF_ID='radiationz', XB=227.0,451.0,-1.0,495.0,40.0,40.0, DEVC_ID='TIMER->OUT'/ 
&VENT ID='Mesh Vent: Mesh02 [ZMIN]', SURF_ID='OPEN', XB=227.0,451.0,-1.0,495.0,0.0,0.0/ 
&VENT ID='Mesh Vent: Mesh04 [YMAX]', SURF_ID='OPEN', XB=691.0,951.0,495.0,495.0,0.0,40.0/ 
&VENT ID='Mesh Vent: Mesh04 [YMIN]', SURF_ID='OPEN', XB=691.0,951.0,-1.0,-1.0,0.0,40.0/ 
&VENT ID='Mesh Vent: Mesh04 [ZMAX]', SURF_ID='radiationz', XB=691.0,951.0,-1.0,495.0,40.0,40.0, DEVC_ID='TIMER->OUT'/ 
&VENT ID='Mesh Vent: Mesh04 [ZMIN]', SURF_ID='OPEN', XB=691.0,951.0,-1.0,495.0,0.0,0.0/ 
&VENT ID='Mesh Vent: Mesh03 [YMAX]', SURF_ID='OPEN', XB=451.0,691.0,495.0,495.0,0.0,40.0/ 
&VENT ID='Mesh Vent: Mesh03 [YMIN]', SURF_ID='OPEN', XB=451.0,691.0,-1.0,-1.0,0.0,40.0/ 
&VENT ID='Mesh Vent: Mesh03 [ZMAX]', SURF_ID='radiationz', XB=451.0,691.0,-1.0,495.0,40.0,40.0, DEVC_ID='TIMER->OUT'/ 
&VENT ID='Mesh Vent: Mesh03 [ZMIN]', SURF_ID='OPEN', XB=451.0,691.0,-1.0,495.0,0.0,0.0/ 

&SLCF QUANTITY='HRRPUV', PBZ=0.0/
&SLCF QUANTITY='TEMPERATURE', PBZ=2.0/
&SLCF QUANTITY='RADIATION LOSS', PBZ=2.0/


&TAIL /