Hangar_q15000_a270_e0_d1360_t1800.fds
Generated by PyroSim - Version 2020.5.1118
2026-7-8 11:12:57

&HEAD CHID='Hangar_q15000_a270_e0_d1360_t1800'/
&TIME T_END=1800.0/
&DUMP DT_RESTART=300.0, DT_SL3D=1.0/
&CLIP MINIMUM_TEMPERATURE=20.0, MAXIMUM_TEMPERATURE=15000.0/

&MESH ID='Mesh01', IJK=65,26,14, XB=-1.0,64.0,0.0,26.0,0.0,14.0/
&MESH ID='Mesh02', IJK=65,40,14, XB=-1.0,64.0,26.0,66.0,0.0,14.0/


&REAC ID='METHANE',
      FYI='AFT NIST Multi-Floor FDS5 Validation',
      FUEL='METHANE',
      H=4.0,
      C=1.0/

&DEVC ID='YMIN', QUANTITY='RADIATIVE HEAT FLUX GAS', XYZ=30.0,0.0,5.0, ORIENTATION=0.0,-1.0,0.0/
&DEVC ID='XMIN', QUANTITY='RADIATIVE HEAT FLUX GAS', XYZ=0.0,20.0,5.0, ORIENTATION=-1.0,0.0,0.0/
&DEVC ID='XMAX', QUANTITY='RADIATIVE HEAT FLUX GAS', XYZ=63.0,20.0,5.0, ORIENTATION=1.0,0.0,0.0/
&DEVC ID='YMAX', QUANTITY='RADIATIVE HEAT FLUX GAS', XYZ=30.0,65.0,5.0, ORIENTATION=0.0,1.0,0.0/
&DEVC ID='TC_feiji', QUANTITY='TEMPERATURE', XYZ=30.0,29.0,13.0/
&DEVC ID='RDFG_feiji', QUANTITY='RADIATIVE HEAT FLUX GAS', XYZ=30.0,29.0,13.0, ORIENTATION=0.0,1.0,0.0/
&DEVC ID='TC_yi_ceng_bangongzhuo_03', QUANTITY='TEMPERATURE', XYZ=32.0,1.7,2.5/
&DEVC ID='RDFG_yi_ceng_bangongzhuo_03', QUANTITY='RADIATIVE HEAT FLUX GAS', XYZ=32.0,1.7,2.5, ORIENTATION=0.0,1.0,0.0/
&DEVC ID='TC_yi_ceng_bangongyi_03', QUANTITY='TEMPERATURE', XYZ=33.5,2.9,2.5/
&DEVC ID='RDFG_yi_ceng_bangongyi_03', QUANTITY='RADIATIVE HEAT FLUX GAS', XYZ=33.5,2.9,2.5, ORIENTATION=0.0,1.0,0.0/
&DEVC ID='TC_yi_ceng_bangongzhuo_01', QUANTITY='TEMPERATURE', XYZ=4.0,7.7,2.5/
&DEVC ID='RDFG_yi_ceng_bangongzhuo_01', QUANTITY='RADIATIVE HEAT FLUX GAS', XYZ=4.0,7.7,2.5, ORIENTATION=0.0,1.0,0.0/
&DEVC ID='TC_yi_ceng_bangongzhuo_02', QUANTITY='TEMPERATURE', XYZ=24.5,7.7,2.5/
&DEVC ID='RDFG_yi_ceng_bangongzhuo_02', QUANTITY='RADIATIVE HEAT FLUX GAS', XYZ=24.5,7.7,2.5, ORIENTATION=0.0,1.0,0.0/
&DEVC ID='TC_yi_ceng_bangongyi_01', QUANTITY='TEMPERATURE', XYZ=5.5,8.9,2.5/
&DEVC ID='RDFG_yi_ceng_bangongyi_01', QUANTITY='RADIATIVE HEAT FLUX GAS', XYZ=5.5,8.9,2.5, ORIENTATION=0.0,1.0,0.0/
&DEVC ID='TC_yi_ceng_bangongyi_02', QUANTITY='TEMPERATURE', XYZ=26.0,8.9,2.5/
&DEVC ID='RDFG_yi_ceng_bangongyi_02', QUANTITY='RADIATIVE HEAT FLUX GAS', XYZ=26.0,8.9,2.5, ORIENTATION=0.0,1.0,0.0/
&DEVC ID='TC_qingxiji_shiyongdian_01', QUANTITY='TEMPERATURE', XYZ=52.5,25.5,1.5/
&DEVC ID='RDFG_qingxiji_shiyongdian_01', QUANTITY='RADIATIVE HEAT FLUX GAS', XYZ=52.5,25.5,1.5, ORIENTATION=0.0,1.0,0.0/
&DEVC ID='TC_weixiu_gongzuotai_01', QUANTITY='TEMPERATURE', XYZ=51.5,29.0,2.5/
&DEVC ID='RDFG_weixiu_gongzuotai_01', QUANTITY='RADIATIVE HEAT FLUX GAS', XYZ=51.5,29.0,2.5, ORIENTATION=0.0,1.0,0.0/
&DEVC ID='TC_cashibu_xiang_01', QUANTITY='TEMPERATURE', XYZ=53.5,32.5,2.5/
&DEVC ID='RDFG_cashibu_xiang_01', QUANTITY='RADIATIVE HEAT FLUX GAS', XYZ=53.5,32.5,2.5, ORIENTATION=0.0,1.0,0.0/
&DEVC ID='TC_gongjuche_01', QUANTITY='TEMPERATURE', XYZ=49.5,33.5,2.5/
&DEVC ID='RDFG_gongjuche_01', QUANTITY='RADIATIVE HEAT FLUX GAS', XYZ=49.5,33.5,2.5, ORIENTATION=0.0,1.0,0.0/
&DEVC ID='TC_beiyong_luntai_dui_01', QUANTITY='TEMPERATURE', XYZ=56.0,35.0,2.5/
&DEVC ID='RDFG_beiyong_luntai_dui_01', QUANTITY='RADIATIVE HEAT FLUX GAS', XYZ=56.0,35.0,2.5, ORIENTATION=0.0,1.0,0.0/
&DEVC ID='TC_weixiu_gongzuotai_02', QUANTITY='TEMPERATURE', XYZ=51.5,37.0,2.5/
&DEVC ID='RDFG_weixiu_gongzuotai_02', QUANTITY='RADIATIVE HEAT FLUX GAS', XYZ=51.5,37.0,2.5, ORIENTATION=0.0,1.0,0.0/
&DEVC ID='TC_gongjuche_02', QUANTITY='TEMPERATURE', XYZ=49.5,39.5,2.5/
&DEVC ID='RDFG_gongjuche_02', QUANTITY='RADIATIVE HEAT FLUX GAS', XYZ=49.5,39.5,2.5, ORIENTATION=0.0,1.0,0.0/
&DEVC ID='TC_runhuaji_xielouchi_01', QUANTITY='TEMPERATURE', XYZ=59.0,47.5,1.5/
&DEVC ID='RDFG_runhuaji_xielouchi_01', QUANTITY='RADIATIVE HEAT FLUX GAS', XYZ=59.0,47.5,1.5, ORIENTATION=0.0,1.0,0.0/
&DEVC ID='TC_ipa_qingxiji_xielouchi_01', QUANTITY='TEMPERATURE', XYZ=55.5,48.5,1.5/
&DEVC ID='RDFG_ipa_qingxiji_xielouchi_01', QUANTITY='RADIATIVE HEAT FLUX GAS', XYZ=55.5,48.5,1.5, ORIENTATION=0.0,1.0,0.0/
&DEVC ID='TC_suliao_zhouzhuanxiang_01', QUANTITY='TEMPERATURE', XYZ=58.0,52.0,2.5/
&DEVC ID='RDFG_suliao_zhouzhuanxiang_01', QUANTITY='RADIATIVE HEAT FLUX GAS', XYZ=58.0,52.0,2.5, ORIENTATION=0.0,1.0,0.0/
&DEVC ID='TC_youpin_xielouchi_01', QUANTITY='TEMPERATURE', XYZ=59.0,51.0,1.5/
&DEVC ID='RDFG_youpin_xielouchi_01', QUANTITY='RADIATIVE HEAT FLUX GAS', XYZ=59.0,51.0,1.5, ORIENTATION=0.0,1.0,0.0/
&DEVC ID='TC_mutuopan_dui_01', QUANTITY='TEMPERATURE', XYZ=54.5,53.0,2.5/
&DEVC ID='RDFG_mutuopan_dui_01', QUANTITY='RADIATIVE HEAT FLUX GAS', XYZ=54.5,53.0,2.5, ORIENTATION=0.0,1.0,0.0/
&DEVC ID='TC_huiyi_yi_03', QUANTITY='TEMPERATURE', XYZ=8.5,57.5,2.5/
&DEVC ID='RDFG_huiyi_yi_03', QUANTITY='RADIATIVE HEAT FLUX GAS', XYZ=8.5,57.5,2.5, ORIENTATION=0.0,1.0,0.0/
&DEVC ID='TC_huiyi_yi_04', QUANTITY='TEMPERATURE', XYZ=11.5,57.5,2.5/
&DEVC ID='RDFG_huiyi_yi_04', QUANTITY='RADIATIVE HEAT FLUX GAS', XYZ=11.5,57.5,2.5, ORIENTATION=0.0,1.0,0.0/
&DEVC ID='TC_huiyizhuo_01', QUANTITY='TEMPERATURE', XYZ=10.0,59.0,2.5/
&DEVC ID='RDFG_huiyizhuo_01', QUANTITY='RADIATIVE HEAT FLUX GAS', XYZ=10.0,59.0,2.5, ORIENTATION=0.0,1.0,0.0/
&DEVC ID='TC_walengzhixiang_dui_01', QUANTITY='TEMPERATURE', XYZ=56.0,59.0,2.5/
&DEVC ID='RDFG_walengzhixiang_dui_01', QUANTITY='RADIATIVE HEAT FLUX GAS', XYZ=56.0,59.0,2.5, ORIENTATION=0.0,1.0,0.0/
&DEVC ID='TC_bangongzhuo_01', QUANTITY='TEMPERATURE', XYZ=19.0,59.5,2.5/
&DEVC ID='RDFG_bangongzhuo_01', QUANTITY='RADIATIVE HEAT FLUX GAS', XYZ=19.0,59.5,2.5, ORIENTATION=0.0,1.0,0.0/
&DEVC ID='TC_dianzi_shebei_01', QUANTITY='TEMPERATURE', XYZ=20.5,59.5,2.5/
&DEVC ID='RDFG_dianzi_shebei_01', QUANTITY='RADIATIVE HEAT FLUX GAS', XYZ=20.5,59.5,2.5, ORIENTATION=0.0,1.0,0.0/
&DEVC ID='TC_bangongzhuo_02', QUANTITY='TEMPERATURE', XYZ=23.0,59.5,2.5/
&DEVC ID='RDFG_bangongzhuo_02', QUANTITY='RADIATIVE HEAT FLUX GAS', XYZ=23.0,59.5,2.5, ORIENTATION=0.0,1.0,0.0/
&DEVC ID='TC_huiyi_yi_01', QUANTITY='TEMPERATURE', XYZ=8.5,60.5,2.5/
&DEVC ID='RDFG_huiyi_yi_01', QUANTITY='RADIATIVE HEAT FLUX GAS', XYZ=8.5,60.5,2.5, ORIENTATION=0.0,1.0,0.0/
&DEVC ID='TC_huiyi_yi_02', QUANTITY='TEMPERATURE', XYZ=11.5,60.5,2.5/
&DEVC ID='RDFG_huiyi_yi_02', QUANTITY='RADIATIVE HEAT FLUX GAS', XYZ=11.5,60.5,2.5, ORIENTATION=0.0,1.0,0.0/
&DEVC ID='TC_wenjian_zhizhangdui_01', QUANTITY='TEMPERATURE', XYZ=24.5,60.5,2.5/
&DEVC ID='RDFG_wenjian_zhizhangdui_01', QUANTITY='RADIATIVE HEAT FLUX GAS', XYZ=24.5,60.5,2.5, ORIENTATION=0.0,1.0,0.0/
&DEVC ID='TC_bangongyi_01', QUANTITY='TEMPERATURE', XYZ=18.5,61.5,2.5/
&DEVC ID='RDFG_bangongyi_01', QUANTITY='RADIATIVE HEAT FLUX GAS', XYZ=18.5,61.5,2.5, ORIENTATION=0.0,1.0,0.0/
&DEVC ID='TC_bangongyi_02', QUANTITY='TEMPERATURE', XYZ=22.5,61.5,2.5/
&DEVC ID='RDFG_bangongyi_02', QUANTITY='RADIATIVE HEAT FLUX GAS', XYZ=22.5,61.5,2.5, ORIENTATION=0.0,1.0,0.0/
&DEVC ID='TC_dianlan_qiaojia_01', QUANTITY='TEMPERATURE', XYZ=55.0,62.5,5.0/
&DEVC ID='RDFG_dianlan_qiaojia_01', QUANTITY='RADIATIVE HEAT FLUX GAS', XYZ=55.0,62.5,5.0, ORIENTATION=0.0,1.0,0.0/
&DEVC ID='TC_er_ceng_bangongzhuo_01', QUANTITY='TEMPERATURE', XYZ=6.0,7.7,5.733/
&DEVC ID='RDFG_er_ceng_bangongzhuo_01', QUANTITY='RADIATIVE HEAT FLUX GAS', XYZ=6.0,7.7,5.733, ORIENTATION=0.0,1.0,0.0/
&DEVC ID='TC_er_ceng_bangongzhuo_02', QUANTITY='TEMPERATURE', XYZ=14.0,7.7,5.733/
&DEVC ID='RDFG_er_ceng_bangongzhuo_02', QUANTITY='RADIATIVE HEAT FLUX GAS', XYZ=14.0,7.7,5.733, ORIENTATION=0.0,1.0,0.0/
&DEVC ID='TC_er_ceng_bangongzhuo_03', QUANTITY='TEMPERATURE', XYZ=24.2,7.7,5.733/
&DEVC ID='RDFG_er_ceng_bangongzhuo_03', QUANTITY='RADIATIVE HEAT FLUX GAS', XYZ=24.2,7.7,5.733, ORIENTATION=0.0,1.0,0.0/
&DEVC ID='TC_er_ceng_bangongzhuo_04', QUANTITY='TEMPERATURE', XYZ=36.2,7.7,5.733/
&DEVC ID='RDFG_er_ceng_bangongzhuo_04', QUANTITY='RADIATIVE HEAT FLUX GAS', XYZ=36.2,7.7,5.733, ORIENTATION=0.0,1.0,0.0/
&DEVC ID='TC_er_ceng_bangongzhuo_05', QUANTITY='TEMPERATURE', XYZ=53.0,7.7,5.733/
&DEVC ID='RDFG_er_ceng_bangongzhuo_05', QUANTITY='RADIATIVE HEAT FLUX GAS', XYZ=53.0,7.7,5.733, ORIENTATION=0.0,1.0,0.0/
&DEVC ID='TC_er_ceng_bangongyi_01', QUANTITY='TEMPERATURE', XYZ=7.5,8.9,5.733/
&DEVC ID='RDFG_er_ceng_bangongyi_01', QUANTITY='RADIATIVE HEAT FLUX GAS', XYZ=7.5,8.9,5.733, ORIENTATION=0.0,1.0,0.0/
&DEVC ID='TC_er_ceng_bangongyi_02', QUANTITY='TEMPERATURE', XYZ=15.5,8.9,5.733/
&DEVC ID='RDFG_er_ceng_bangongyi_02', QUANTITY='RADIATIVE HEAT FLUX GAS', XYZ=15.5,8.9,5.733, ORIENTATION=0.0,1.0,0.0/
&DEVC ID='TC_er_ceng_bangongyi_03', QUANTITY='TEMPERATURE', XYZ=25.7,8.9,5.733/
&DEVC ID='RDFG_er_ceng_bangongyi_03', QUANTITY='RADIATIVE HEAT FLUX GAS', XYZ=25.7,8.9,5.733, ORIENTATION=0.0,1.0,0.0/
&DEVC ID='TC_er_ceng_bangongyi_04', QUANTITY='TEMPERATURE', XYZ=37.7,8.9,5.733/
&DEVC ID='RDFG_er_ceng_bangongyi_04', QUANTITY='RADIATIVE HEAT FLUX GAS', XYZ=37.7,8.9,5.733, ORIENTATION=0.0,1.0,0.0/
&DEVC ID='TC_er_ceng_bangongyi_05', QUANTITY='TEMPERATURE', XYZ=54.5,8.9,5.733/
&DEVC ID='RDFG_er_ceng_bangongyi_05', QUANTITY='RADIATIVE HEAT FLUX GAS', XYZ=54.5,8.9,5.733, ORIENTATION=0.0,1.0,0.0/
&DEVC ID='TC_er_ceng_bangongzhuo_03_p02', QUANTITY='TEMPERATURE', XYZ=14.2,53.7,5.733/
&DEVC ID='RDFG_er_ceng_bangongzhuo_03_p02', QUANTITY='RADIATIVE HEAT FLUX GAS', XYZ=14.2,53.7,5.733, ORIENTATION=0.0,1.0,0.0/
&DEVC ID='TC_er_ceng_bangongzhuo_03_p03', QUANTITY='TEMPERATURE', XYZ=24.2,53.7,5.733/
&DEVC ID='RDFG_er_ceng_bangongzhuo_03_p03', QUANTITY='RADIATIVE HEAT FLUX GAS', XYZ=24.2,53.7,5.733, ORIENTATION=0.0,1.0,0.0/
&DEVC ID='TC_er_ceng_bangongzhuo_03_p04', QUANTITY='TEMPERATURE', XYZ=54.2,53.7,5.733/
&DEVC ID='RDFG_er_ceng_bangongzhuo_03_p04', QUANTITY='RADIATIVE HEAT FLUX GAS', XYZ=54.2,53.7,5.733, ORIENTATION=0.0,1.0,0.0/
&DEVC ID='TC_er_ceng_bangongyi_03_p02', QUANTITY='TEMPERATURE', XYZ=11.7,52.9,5.733/
&DEVC ID='RDFG_er_ceng_bangongyi_03_p02', QUANTITY='RADIATIVE HEAT FLUX GAS', XYZ=11.7,52.9,5.733, ORIENTATION=0.0,1.0,0.0/
&DEVC ID='TC_er_ceng_bangongyi_03_p03', QUANTITY='TEMPERATURE', XYZ=25.7,52.9,5.733/
&DEVC ID='RDFG_er_ceng_bangongyi_03_p03', QUANTITY='RADIATIVE HEAT FLUX GAS', XYZ=25.7,52.9,5.733, ORIENTATION=0.0,1.0,0.0/
&DEVC ID='TC_er_ceng_bangongyi_03_p04', QUANTITY='TEMPERATURE', XYZ=32.5,52.9,5.733/
&DEVC ID='RDFG_er_ceng_bangongyi_03_p04', QUANTITY='RADIATIVE HEAT FLUX GAS', XYZ=32.5,52.9,5.733, ORIENTATION=0.0,1.0,0.0/
&DEVC ID='TC_er_ceng_bangongyi_03_p05', QUANTITY='TEMPERATURE', XYZ=34.5,52.9,5.733/
&DEVC ID='RDFG_er_ceng_bangongyi_03_p05', QUANTITY='RADIATIVE HEAT FLUX GAS', XYZ=34.5,52.9,5.733, ORIENTATION=0.0,1.0,0.0/
&DEVC ID='TC_er_ceng_bangongyi_03_p06', QUANTITY='TEMPERATURE', XYZ=38.7,52.9,5.733/
&DEVC ID='RDFG_er_ceng_bangongyi_03_p06', QUANTITY='RADIATIVE HEAT FLUX GAS', XYZ=38.7,52.9,5.733, ORIENTATION=0.0,1.0,0.0/
&DEVC ID='TC_er_ceng_bangongyi_03_p07', QUANTITY='TEMPERATURE', XYZ=40.7,52.9,5.733/
&DEVC ID='RDFG_er_ceng_bangongyi_03_p07', QUANTITY='RADIATIVE HEAT FLUX GAS', XYZ=40.7,52.9,5.733, ORIENTATION=0.0,1.0,0.0/
&DEVC ID='TC_er_ceng_bangongyi_03_p08', QUANTITY='TEMPERATURE', XYZ=46.7,52.9,5.733/
&DEVC ID='RDFG_er_ceng_bangongyi_03_p08', QUANTITY='RADIATIVE HEAT FLUX GAS', XYZ=46.7,52.9,5.733, ORIENTATION=0.0,1.0,0.0/
&DEVC ID='TC_er_ceng_bangongyi_03_p09', QUANTITY='TEMPERATURE', XYZ=52.7,52.9,5.733/
&DEVC ID='RDFG_er_ceng_bangongyi_03_p09', QUANTITY='RADIATIVE HEAT FLUX GAS', XYZ=52.7,52.9,5.733, ORIENTATION=0.0,1.0,0.0/
&DEVC ID='TIMER->OUT->OUT', QUANTITY='TIME', XYZ=-1.0,0.0,0.0, SETPOINT=1.36, INITIAL_STATE=.TRUE./

&MATL ID='ALUMINUM',
      FYI='铝合金（表格参数）',
      SPECIFIC_HEAT=0.84,
      CONDUCTIVITY=167.0,
      DENSITY=2700.0,
      EMISSIVITY=0.8/
&MATL ID='STEEL',
      FYI='STEEL（表格参数）',
      SPECIFIC_HEAT=0.46,
      CONDUCTIVITY=45.8,
      DENSITY=7850.0/
&MATL ID='INSULATION',
      FYI='岩棉隔热材料（表格参数）',
      SPECIFIC_HEAT=0.85,
      CONDUCTIVITY=0.04,
      DENSITY=80.0/
&MATL ID='CONCRETE',
      FYI='水泥（表格参数）',
      SPECIFIC_HEAT=1.04,
      CONDUCTIVITY=1.8,
      DENSITY=2280.0/
&MATL ID='YELLOW_WOOD',
      FYI='黄木：替代 PLYWOOD',
      SPECIFIC_HEAT=2.805,
      CONDUCTIVITY=0.15,
      DENSITY=640.0/
&MATL ID='CORRUGATED_CARDBOARD',
      FYI='瓦楞纸板，表格参数',
      SPECIFIC_HEAT=1.4,
      CONDUCTIVITY=0.06,
      DENSITY=320.0/
&MATL ID='EPDM',
      FYI='三元乙丙橡胶EPDM：替代 RUBBER',
      SPECIFIC_HEAT=1.403,
      CONDUCTIVITY=0.133,
      DENSITY=1200.0/
&MATL ID='PP_PLASTIC',
      FYI='黑色塑料PP：替代黑色塑料',
      SPECIFIC_HEAT=1.764,
      CONDUCTIVITY=0.137,
      DENSITY=886.0/
&MATL ID='TEXTILE_FABRIC',
      FYI='纺织品：替代 TEXTILE',
      SPECIFIC_HEAT=1.314,
      CONDUCTIVITY=0.023,
      DENSITY=555.8/
&MATL ID='PAPER',
      FYI='纸张，表格参数',
      SPECIFIC_HEAT=1.34,
      CONDUCTIVITY=0.18,
      DENSITY=930.0/
&MATL ID='ABS',
      FYI='电子设备塑料ABS：替代PVC和Mac塑料',
      SPECIFIC_HEAT=1.96,
      CONDUCTIVITY=0.218,
      DENSITY=1060.0/
&MATL ID='PVC_CABLE',
      FYI='PVC电缆绝缘，表格参数',
      SPECIFIC_HEAT=1.289,
      CONDUCTIVITY=0.192,
      DENSITY=1380.0/
&MATL ID='INDUSTRIAL_OIL',
      FYI='工业油品：替代 Oil 和 Lubricant，暴露燃烧',
      SPECIFIC_HEAT=1.8,
      CONDUCTIVITY=0.13,
      DENSITY=900.0,
      EMISSIVITY=0.95/
&MATL ID='IPA_CLEANER',
      FYI='异丙醇清洗剂 IPA：替代 Cleaning，暴露燃烧',
      SPECIFIC_HEAT=2.53,
      CONDUCTIVITY=0.135,
      DENSITY=785.0,
      EMISSIVITY=0.95/

&SURF ID='Aircraft',
      RGB=146,202,166,
      BACKING='VOID',
      MATL_ID(1,1)='ALUMINUM',
      MATL_MASS_FRACTION(1,1)=1.0,
      THICKNESS(1)=3.0E-3/
&SURF ID='门 - 框架',
      RGB=118,70,51,
      BACKING='VOID',
      MATL_ID(1,1)='STEEL',
      MATL_MASS_FRACTION(1,1)=1.0,
      THICKNESS(1)=0.01/
&SURF ID='门 - 嵌板',
      RGB=210,159,95,
      BACKING='VOID',
      MATL_ID(1,1:2)='STEEL','INSULATION',
      MATL_MASS_FRACTION(1,1:2)=0.25,0.75,
      THICKNESS(1)=0.05/
&SURF ID='IfcDoor',
      RGB=247,48,0,
      BACKING='VOID',
      MATL_ID(1,1)='STEEL',
      MATL_MASS_FRACTION(1,1)=1.0,
      THICKNESS(1)=0.05/
&SURF ID='默认楼板',
      COLOR='GRAY 50',
      BACKING='VOID',
      MATL_ID(1,1)='CONCRETE',
      MATL_MASS_FRACTION(1,1)=1.0,
      THICKNESS(1)=0.2/
&SURF ID='默认墙',
      COLOR='GRAY',
      BACKING='VOID',
      MATL_ID(1,1)='STEEL',
      MATL_MASS_FRACTION(1,1)=1.0,
      THICKNESS(1)=0.1/
&SURF ID='默认屋顶',
      RGB=0,127,0,
      BACKING='VOID',
      MATL_ID(1,1:2)='STEEL','INSULATION',
      MATL_MASS_FRACTION(1,1:2)=0.25,0.75,
      THICKNESS(1)=0.1/
&SURF ID='胶合板，面层',
      RGB=184,187,68,
      HRRPUA=300.0,
      RAMP_Q='胶合板，面层_RAMP_Q',
      IGNITION_TEMPERATURE=330.0,
      BACKING='INSULATED',
      MATL_ID(1,1)='YELLOW_WOOD',
      MATL_MASS_FRACTION(1,1)=1.0,
      THICKNESS(1)=0.02/
&RAMP ID='胶合板，面层_RAMP_Q', T=0.0, F=0.0/
&RAMP ID='胶合板，面层_RAMP_Q', T=30.0, F=1.0/
&RAMP ID='胶合板，面层_RAMP_Q', T=546.0, F=1.0/
&RAMP ID='胶合板，面层_RAMP_Q', T=576.0, F=0.0/
&SURF ID='瓦楞纸板',
      RGB=180,140,90,
      HRRPUA=300.0,
      RAMP_Q='瓦楞纸板_RAMP_Q',
      IGNITION_TEMPERATURE=251.0,
      BACKING='INSULATED',
      MATL_ID(1,1)='CORRUGATED_CARDBOARD',
      MATL_MASS_FRACTION(1,1)=1.0,
      THICKNESS(1)=0.086/
&RAMP ID='瓦楞纸板_RAMP_Q', T=0.0, F=1.0/
&RAMP ID='瓦楞纸板_RAMP_Q', T=1287.0, F=1.0/
&RAMP ID='瓦楞纸板_RAMP_Q', T=1347.0, F=0.0/
&SURF ID='橡胶，黑色',
      COLOR='GRAY 47',
      HRRPUA=600.0,
      RAMP_Q='橡胶，黑色_RAMP_Q',
      IGNITION_TEMPERATURE=213.0,
      BACKING='INSULATED',
      MATL_ID(1,1)='EPDM',
      MATL_MASS_FRACTION(1,1)=1.0,
      THICKNESS(1)=5.0E-3/
&RAMP ID='橡胶，黑色_RAMP_Q', T=0.0, F=0.0/
&RAMP ID='橡胶，黑色_RAMP_Q', T=20.0, F=1.0/
&RAMP ID='橡胶，黑色_RAMP_Q', T=340.0, F=1.0/
&RAMP ID='橡胶，黑色_RAMP_Q', T=370.0, F=0.0/
&SURF ID='塑料 - 黑色',
      COLOR='GRAY 2',
      HRRPUA=2500.0,
      RAMP_Q='塑料 - 黑色_RAMP_Q',
      IGNITION_TEMPERATURE=408.0,
      BACKING='INSULATED',
      MATL_ID(1,1)='PP_PLASTIC',
      MATL_MASS_FRACTION(1,1)=1.0,
      THICKNESS(1)=5.0E-3/
&RAMP ID='塑料 - 黑色_RAMP_Q', T=0.0, F=0.0/
&RAMP ID='塑料 - 黑色_RAMP_Q', T=10.0, F=1.0/
&RAMP ID='塑料 - 黑色_RAMP_Q', T=50.0, F=1.0/
&RAMP ID='塑料 - 黑色_RAMP_Q', T=60.0, F=0.0/
&SURF ID='纺织品 - 蓝灰',
      RGB=130,132,163,
      HRRPUA=200.0,
      RAMP_Q='纺织品 - 蓝灰_RAMP_Q',
      IGNITION_TEMPERATURE=292.0,
      BACKING='INSULATED',
      MATL_ID(1,1)='TEXTILE_FABRIC',
      MATL_MASS_FRACTION(1,1)=1.0,
      THICKNESS(1)=3.0E-3/
&RAMP ID='纺织品 - 蓝灰_RAMP_Q', T=0.0, F=0.0/
&RAMP ID='纺织品 - 蓝灰_RAMP_Q', T=20.0, F=1.0/
&RAMP ID='纺织品 - 蓝灰_RAMP_Q', T=111.0, F=1.0/
&RAMP ID='纺织品 - 蓝灰_RAMP_Q', T=141.0, F=0.0/
&SURF ID='纸张',
      RGB=240,240,220,
      HRRPUA=200.0,
      RAMP_Q='纸张_RAMP_Q',
      IGNITION_TEMPERATURE=250.0,
      BACKING='INSULATED',
      MATL_ID(1,1)='PAPER',
      MATL_MASS_FRACTION(1,1)=1.0,
      THICKNESS(1)=0.028/
&RAMP ID='纸张_RAMP_Q', T=0.0, F=1.0/
&RAMP ID='纸张_RAMP_Q', T=2083.0, F=1.0/
&RAMP ID='纸张_RAMP_Q', T=2143.0, F=0.0/
&SURF ID='Mac-Body',
      RGB=185,185,185,
      HRRPUA=1500.0,
      RAMP_Q='Mac-Body_RAMP_Q',
      IGNITION_TEMPERATURE=363.0,
      BACKING='INSULATED',
      MATL_ID(1,1)='ABS',
      MATL_MASS_FRACTION(1,1)=1.0,
      THICKNESS(1)=5.0E-3/
&RAMP ID='Mac-Body_RAMP_Q', T=0.0, F=0.0/
&RAMP ID='Mac-Body_RAMP_Q', T=30.0, F=1.0/
&RAMP ID='Mac-Body_RAMP_Q', T=130.0, F=1.0/
&RAMP ID='Mac-Body_RAMP_Q', T=160.0, F=0.0/
&SURF ID='PVC电缆绝缘',
      COLOR='GRAY 20',
      HRRPUA=250.0,
      RAMP_Q='PVC电缆绝缘_RAMP_Q',
      IGNITION_TEMPERATURE=325.0,
      BACKING='INSULATED',
      MATL_ID(1,1)='PVC_CABLE',
      MATL_MASS_FRACTION(1,1)=1.0,
      THICKNESS(1)=5.0E-3/
&RAMP ID='PVC电缆绝缘_RAMP_Q', T=0.0, F=1.0/
&RAMP ID='PVC电缆绝缘_RAMP_Q', T=577.0, F=1.0/
&RAMP ID='PVC电缆绝缘_RAMP_Q', T=637.0, F=0.0/
&SURF ID='Oil_Product_Drum_Fire',
      COLOR='ORANGE',
      HRRPUA=800.0,
      RAMP_Q='Oil_Product_Drum_Fire_RAMP_Q',
      IGNITION_TEMPERATURE=300.0,
      BACKING='INSULATED',
      MATL_ID(1,1)='INDUSTRIAL_OIL',
      MATL_MASS_FRACTION(1,1)=1.0,
      THICKNESS(1)=0.05/
&RAMP ID='Oil_Product_Drum_Fire_RAMP_Q', T=0.0, F=0.0/
&RAMP ID='Oil_Product_Drum_Fire_RAMP_Q', T=60.0, F=1.0/
&RAMP ID='Oil_Product_Drum_Fire_RAMP_Q', T=2419.0, F=1.0/
&RAMP ID='Oil_Product_Drum_Fire_RAMP_Q', T=2449.0, F=0.0/
&SURF ID='Lubricant_Drum_Fire',
      COLOR='YELLOW',
      HRRPUA=800.0,
      RAMP_Q='Lubricant_Drum_Fire_RAMP_Q',
      IGNITION_TEMPERATURE=300.0,
      BACKING='INSULATED',
      MATL_ID(1,1)='INDUSTRIAL_OIL',
      MATL_MASS_FRACTION(1,1)=1.0,
      THICKNESS(1)=0.05/
&RAMP ID='Lubricant_Drum_Fire_RAMP_Q', T=0.0, F=0.0/
&RAMP ID='Lubricant_Drum_Fire_RAMP_Q', T=60.0, F=1.0/
&RAMP ID='Lubricant_Drum_Fire_RAMP_Q', T=2419.0, F=1.0/
&RAMP ID='Lubricant_Drum_Fire_RAMP_Q', T=2449.0, F=0.0/
&SURF ID='Cleaning_Agent_Drum_Fire',
      COLOR='RED',
      HRRPUA=900.0,
      RAMP_Q='Cleaning_Agent_Drum_Fire_RAMP_Q',
      IGNITION_TEMPERATURE=399.0,
      BACKING='INSULATED',
      MATL_ID(1,1)='IPA_CLEANER',
      MATL_MASS_FRACTION(1,1)=1.0,
      THICKNESS(1)=0.01/
&RAMP ID='Cleaning_Agent_Drum_Fire_RAMP_Q', T=0.0, F=0.0/
&RAMP ID='Cleaning_Agent_Drum_Fire_RAMP_Q', T=30.0, F=1.0/
&RAMP ID='Cleaning_Agent_Drum_Fire_RAMP_Q', T=263.0, F=1.0/
&RAMP ID='Cleaning_Agent_Drum_Fire_RAMP_Q', T=293.0, F=0.0/
&SURF ID='radiationz',
      RGB=255,102,0,
      NET_HEAT_FLUX=0.000,
      EMISSIVITY=1.0/
&SURF ID='RADIATION',
      COLOR='RED',
      NET_HEAT_FLUX=15000.000,
      EMISSIVITY=1.0/

&OBST ID='A320_B737_飞机_机头', XB=11.0,14.0,27.0,30.0,1.4,4.6, COLOR='WHITE', SURF_ID='Aircraft'/ 
&OBST ID='A320_B737_飞机_机身', XB=14.0,46.0,26.5,30.5,1.0,5.0, COLOR='WHITE', SURF_ID='Aircraft'/ 
&OBST ID='A320_B737_飞机_尾锥', XB=46.0,49.0,27.0,30.0,1.5,4.5, COLOR='WHITE', SURF_ID='Aircraft'/ 
&OBST ID='A320_B737_飞机_主翼', XB=26.0,32.0,13.0,45.0,4.0,4.0, COLOR='WHITE', SURF_ID='Aircraft'/ 
&OBST ID='A320_B737_飞机_左发动机', XB=29.0,32.0,18.0,20.0,2.0,3.3, COLOR='GRAY 70', SURF_ID='Aircraft'/ 
&OBST ID='A320_B737_飞机_右发动机', XB=29.0,32.0,40.0,42.0,2.0,3.3, COLOR='GRAY 70', SURF_ID='Aircraft'/ 
&OBST ID='A320_B737_飞机_平尾', XB=44.0,49.0,21.0,37.0,5.0,6.0, COLOR='WHITE', SURF_ID='Aircraft'/ 
&OBST ID='A320_B737_飞机_垂尾', XB=45.0,49.0,28.0,30.0,5.0,12.0, COLOR='WHITE', SURF_ID='Aircraft'/ 
&OBST ID='单扇 - 与墙齐:750 x 2000mm:379320', XB=4.585938,5.09375,58.457143,59.4,1.366667,1.866667, RGB=118,70,51, SURF_ID='门 - 框架'/ 
&OBST ID='单扇 - 与墙齐:750 x 2000mm:379320', XB=4.585938,5.09375,58.457143,58.957143,0.0,1.866667, RGB=118,70,51, SURF_ID='门 - 框架'/ 
&OBST ID='单扇 - 与墙齐:750 x 2000mm:379320', XB=4.585938,5.09375,59.4,59.9,0.0,1.866667, RGB=118,70,51, SURF_ID='门 - 框架'/ 
&OBST ID='单扇 - 与墙齐:750 x 2000mm:379320', XB=4.585938,5.085938,58.457143,59.4,0.0,1.866667, RGB=210,159,95, SURF_ID='门 - 嵌板'/ 
&OBST ID='单扇 - 与墙齐:750 x 2000mm:379506', XB=4.585938,5.09375,54.685714,55.157143,0.0,1.866667, RGB=118,70,51, SURF_ID='门 - 框架'/ 
&OBST ID='单扇 - 与墙齐:750 x 2000mm:379506', XB=4.585938,5.09375,54.214286,54.685714,1.366667,1.866667, RGB=118,70,51, SURF_ID='门 - 框架'/ 
&OBST ID='单扇 - 与墙齐:750 x 2000mm:379506', XB=4.585938,5.09375,54.214286,54.714286,0.0,1.866667, RGB=118,70,51, SURF_ID='门 - 框架'/ 
&OBST ID='单扇 - 与墙齐:750 x 2000mm:379506', XB=4.585938,5.085938,54.214286,54.685714,0.0,1.866667, RGB=210,159,95, SURF_ID='门 - 嵌板'/ 
&OBST ID='单扇 - 与墙齐:750 x 2000mm:379590', XB=6.109375,6.609375,52.8,53.271429,0.0,1.866667, RGB=210,159,95, SURF_ID='门 - 嵌板'/ 
&OBST ID='单扇 - 与墙齐:750 x 2000mm:379590', XB=6.109375,6.609375,53.271429,53.742857,0.0,1.866667, RGB=118,70,51, SURF_ID='门 - 框架'/ 
&OBST ID='单扇 - 与墙齐:750 x 2000mm:379666', XB=6.617188,7.125,51.857143,52.328571,0.0,1.866667, RGB=210,159,95, SURF_ID='门 - 嵌板'/ 
&OBST ID='单扇 - 与墙齐:750 x 2000mm:379714', XB=8.648438,9.148438,52.8,53.742857,0.0,1.866667, RGB=210,159,95, SURF_ID='门 - 嵌板'/ 
&OBST ID='单扇 - 与墙齐:750 x 2000mm:379880', XB=8.648438,9.148438,54.214286,54.685714,0.0,1.866667, RGB=210,159,95, SURF_ID='门 - 嵌板'/ 
&OBST ID='单扇 - 与墙齐:750 x 2000mm:379880', XB=8.648438,9.148438,54.685714,55.157143,0.0,1.866667, RGB=118,70,51, SURF_ID='门 - 框架'/ 
&OBST ID='单扇 - 与墙齐:750 x 2000mm:379944', XB=11.695313,12.195313,53.742857,54.214286,0.0,1.866667, RGB=118,70,51, SURF_ID='门 - 框架'/ 
&OBST ID='单扇 - 与墙齐:750 x 2000mm:379944', XB=11.695313,12.195313,54.214286,54.685714,0.0,1.866667, RGB=210,159,95, SURF_ID='门 - 嵌板'/ 
&OBST ID='单扇 - 与墙齐:750 x 2000mm:380345', XB=17.28125,17.78125,61.757143,62.228571,0.0,1.866667, RGB=210,159,95, SURF_ID='门 - 嵌板'/ 
&OBST ID='单扇 - 与墙齐:750 x 2000mm:380345', XB=17.28125,17.78125,62.228571,62.7,0.0,1.866667, RGB=118,70,51, SURF_ID='门 - 框架'/ 
&OBST ID='单扇 - 与墙齐:750 x 2000mm:380345', XB=17.789063,18.289063,62.228571,62.7,0.0,1.866667, RGB=118,70,51, SURF_ID='门 - 框架'/ 
&OBST ID='单扇 - 与墙齐:750 x 2000mm:380505', XB=24.898438,25.40625,53.742857,54.242857,0.0,1.866667, RGB=210,159,95, SURF_ID='门 - 嵌板'/ 
&OBST ID='单扇 - 与墙齐:750 x 2000mm:380591', XB=21.34375,22.359375,53.742857,54.242857,0.0,1.866667, RGB=210,159,95, SURF_ID='门 - 嵌板'/ 
&OBST ID='单扇 - 与墙齐:750 x 2000mm:380655', XB=18.296875,19.3125,53.742857,54.242857,0.0,1.866667, RGB=210,159,95, SURF_ID='门 - 嵌板'/ 
&OBST ID='单扇 - 与墙齐:750 x 2000mm:380699', XB=15.25,15.757813,53.742857,54.242857,0.0,1.866667, RGB=210,159,95, SURF_ID='门 - 嵌板'/ 
&OBST ID='单扇 - 与墙齐:750 x 2000mm:380699', XB=15.757813,16.265625,53.742857,54.242857,0.0,1.866667, RGB=118,70,51, SURF_ID='门 - 框架'/ 
&OBST ID='单扇 - 与墙齐:750 x 2000mm:380741', XB=28.453125,28.953125,55.628571,56.571429,0.0,1.866667, RGB=210,159,95, SURF_ID='门 - 嵌板'/ 
&OBST ID='单扇 - 与墙齐:750 x 2000mm:380981', XB=28.960938,29.46875,55.157143,55.657143,0.0,1.866667, RGB=210,159,95, SURF_ID='门 - 嵌板'/ 
&OBST ID='单扇 - 与墙齐:750 x 2000mm:381051', XB=29.976563,30.484375,59.4,59.9,0.0,1.866667, RGB=118,70,51, SURF_ID='门 - 框架'/ 
&OBST ID='单扇 - 与墙齐:750 x 2000mm:381051', XB=30.484375,30.992188,59.4,59.9,0.0,1.866667, RGB=210,159,95, SURF_ID='门 - 嵌板'/ 
&OBST ID='单扇 - 与墙齐:750 x 2000mm:381127', XB=34.546875,35.046875,59.871429,60.342857,0.0,1.866667, RGB=210,159,95, SURF_ID='门 - 嵌板'/ 
&OBST ID='单扇 - 与墙齐:750 x 2000mm:381951', XB=19.820313,20.328125,55.157143,55.657143,0.0,1.866667, RGB=210,159,95, SURF_ID='门 - 嵌板'/ 
&OBST ID='单扇 - 与墙齐:750 x 2000mm:382007', XB=23.882813,24.390625,55.157143,55.657143,0.0,1.866667, RGB=210,159,95, SURF_ID='门 - 嵌板'/ 
&OBST ID='单扇 - 与墙齐:750 x 2000mm:382117', XB=37.085938,37.59375,57.514286,57.985714,0.0,1.866667, RGB=118,70,51, SURF_ID='门 - 框架'/ 
&OBST ID='单扇 - 与墙齐:750 x 2000mm:382117', XB=37.085938,37.59375,57.042857,57.514286,1.366667,1.866667, RGB=118,70,51, SURF_ID='门 - 框架'/ 
&OBST ID='单扇 - 与墙齐:750 x 2000mm:382117', XB=37.085938,37.59375,57.042857,57.542857,0.0,1.866667, RGB=118,70,51, SURF_ID='门 - 框架'/ 
&OBST ID='单扇 - 与墙齐:750 x 2000mm:382117', XB=37.59375,38.09375,57.042857,57.514286,0.0,1.866667, RGB=210,159,95, SURF_ID='门 - 嵌板'/ 
&OBST ID='单扇 - 与墙齐:750 x 2000mm:382223', XB=43.6875,44.1875,53.742857,54.685714,0.0,1.866667, RGB=210,159,95, SURF_ID='门 - 嵌板'/ 
&OBST ID='单扇 - 与墙齐:750 x 2000mm:382307', XB=41.65625,42.15625,49.5,50.442857,0.0,1.866667, RGB=210,159,95, SURF_ID='门 - 嵌板'/ 
&OBST ID='单扇 - 与墙齐:750 x 2000mm:382421', XB=42.164063,43.179688,49.028571,49.528571,0.0,1.866667, RGB=210,159,95, SURF_ID='门 - 嵌板'/ 
&OBST ID='单扇 - 与墙齐:750 x 2000mm:382457', XB=51.8125,52.3125,51.385714,52.328571,0.0,1.866667, RGB=210,159,95, SURF_ID='门 - 嵌板'/ 
&OBST ID='单扇 - 与墙齐:750 x 2000mm:382575', XB=55.875,56.375,49.971429,50.442857,0.0,1.866667, RGB=210,159,95, SURF_ID='门 - 嵌板'/ 
&OBST ID='单扇 - 与墙齐:750 x 2000mm:382575', XB=55.875,56.375,50.442857,50.914286,0.0,1.866667, RGB=118,70,51, SURF_ID='门 - 框架'/ 
&OBST ID='单扇 - 与墙齐:750 x 2000mm:383129', XB=55.875,56.890625,54.214286,54.714286,0.0,1.866667, RGB=210,159,95, SURF_ID='门 - 嵌板'/ 
&OBST ID='单扇 - 与墙齐:750 x 2000mm:383191', XB=57.90625,58.40625,55.628571,56.571429,0.0,1.866667, RGB=210,159,95, SURF_ID='门 - 嵌板'/ 
&OBST ID='单扇 - 与墙齐:600 x 1800mm:383861', XB=60.445313,60.945313,57.514286,57.985714,0.0,1.866667, RGB=210,159,95, SURF_ID='门 - 嵌板'/ 
&OBST ID='单扇 - 与墙齐:600 x 1800mm:383932', XB=60.445313,60.945313,56.1,56.571429,0.0,1.866667, RGB=118,70,51, SURF_ID='门 - 框架'/ 
&OBST ID='单扇 - 与墙齐:600 x 1800mm:383932', XB=60.445313,60.945313,56.571429,57.042857,0.0,1.866667, RGB=210,159,95, SURF_ID='门 - 嵌板'/ 
&OBST ID='单扇 - 与墙齐:600 x 1800mm:384002', XB=60.445313,60.945313,55.628571,56.1,0.0,1.866667, RGB=210,159,95, SURF_ID='门 - 嵌板'/ 
&OBST ID='单扇 - 与墙齐:750 x 2000mm:384092', XB=60.445313,60.945313,59.4,60.342857,0.0,1.866667, RGB=210,159,95, SURF_ID='门 - 嵌板'/ 
&OBST ID='单扇 - 与墙齐:750 x 2000mm:384210', XB=57.398438,57.898438,59.4,59.871429,0.0,1.866667, RGB=118,70,51, SURF_ID='门 - 框架'/ 
&OBST ID='单扇 - 与墙齐:750 x 2000mm:384210', XB=57.90625,58.40625,59.4,59.871429,0.0,1.866667, RGB=118,70,51, SURF_ID='门 - 框架'/ 
&OBST ID='单扇 - 与墙齐:750 x 2000mm:384210', XB=57.90625,58.40625,59.871429,60.342857,0.0,1.866667, RGB=210,159,95, SURF_ID='门 - 嵌板'/ 
&OBST ID='单扇 - 与墙齐:750 x 2000mm:384436', XB=58.921875,59.429688,49.028571,49.528571,0.0,1.866667, RGB=210,159,95, SURF_ID='门 - 嵌板'/ 
&OBST ID='单扇 - 与墙齐:750 x 2000mm:384596', XB=57.398438,58.414063,43.371429,43.871429,0.0,1.866667, RGB=210,159,95, SURF_ID='门 - 嵌板'/ 
&OBST ID='单扇 - 与墙齐:750 x 2000mm:384785', XB=56.382813,56.890625,43.371429,43.871429,0.0,1.866667, RGB=210,159,95, SURF_ID='门 - 嵌板'/ 
&OBST ID='单扇 - 与墙齐:750 x 2000mm:384873', XB=58.414063,58.914063,42.428571,42.9,0.0,1.866667, RGB=210,159,95, SURF_ID='门 - 嵌板'/ 
&OBST ID='单扇 - 与墙齐:750 x 2000mm:384873', XB=58.414063,58.914063,42.9,43.371429,0.0,1.866667, RGB=118,70,51, SURF_ID='门 - 框架'/ 
&OBST ID='单扇 - 与墙齐:750 x 2000mm:384957', XB=58.414063,59.429688,38.657143,39.157143,0.0,1.866667, RGB=210,159,95, SURF_ID='门 - 嵌板'/ 
&OBST ID='单扇 - 与墙齐:750 x 2000mm:385059', XB=59.429688,59.929688,35.828571,36.3,0.0,1.866667, RGB=118,70,51, SURF_ID='门 - 框架'/ 
&OBST ID='单扇 - 与墙齐:750 x 2000mm:385059', XB=59.9375,60.4375,35.828571,36.3,0.0,1.866667, RGB=118,70,51, SURF_ID='门 - 框架'/ 
&OBST ID='单扇 - 与墙齐:750 x 2000mm:385059', XB=59.9375,60.4375,36.3,36.771429,0.0,1.866667, RGB=210,159,95, SURF_ID='门 - 嵌板'/ 
&OBST ID='单扇 - 与墙齐:750 x 2000mm:385119', XB=47.75,48.765625,30.642857,31.142857,0.0,1.866667, RGB=210,159,95, SURF_ID='门 - 嵌板'/ 
&OBST ID='单扇 - 与墙齐:750 x 2000mm:385221', XB=32.515625,33.53125,30.642857,31.142857,0.0,1.866667, RGB=210,159,95, SURF_ID='门 - 嵌板'/ 
&OBST ID='单扇 - 与墙齐:750 x 2000mm:385343', XB=32.515625,33.53125,46.2,46.7,0.0,1.866667, RGB=210,159,95, SURF_ID='门 - 嵌板'/ 
&OBST ID='单扇 - 与墙齐:750 x 2000mm:385431', XB=53.335938,53.835938,44.785714,45.728571,0.0,1.866667, RGB=210,159,95, SURF_ID='门 - 嵌板'/ 
&OBST ID='单扇 - 与墙齐:750 x 2000mm:385555', XB=52.320313,52.828125,46.2,46.7,0.0,1.866667, RGB=210,159,95, SURF_ID='门 - 嵌板'/ 
&OBST ID='单扇 - 与墙齐:750 x 2000mm:385555', XB=52.828125,53.335938,45.728571,46.228571,0.0,1.866667, RGB=118,70,51, SURF_ID='门 - 框架'/ 
&OBST ID='单扇 - 与墙齐:750 x 2000mm:385555', XB=52.828125,53.335938,46.2,46.7,0.0,1.866667, RGB=118,70,51, SURF_ID='门 - 框架'/ 
&OBST ID='单扇 - 与墙齐:750 x 2000mm:385599', XB=17.789063,18.289063,6.6,7.542857,0.0,1.866667, RGB=210,159,95, SURF_ID='门 - 嵌板'/ 
&OBST ID='单扇 - 与墙齐:750 x 2000mm:385775', XB=22.359375,22.859375,8.014286,8.957143,0.0,1.866667, RGB=210,159,95, SURF_ID='门 - 嵌板'/ 
&OBST ID='单扇 - 与墙齐:750 x 2000mm:385875', XB=22.359375,22.859375,9.428571,10.371429,0.0,1.866667, RGB=210,159,95, SURF_ID='门 - 嵌板'/ 
&OBST ID='单扇 - 与墙齐:750 x 2000mm:385951', XB=28.960938,29.46875,8.014286,8.485714,0.0,1.866667, RGB=210,159,95, SURF_ID='门 - 嵌板'/ 
&OBST ID='单扇 - 与墙齐:750 x 2000mm:385951', XB=28.960938,29.460938,8.485714,8.957143,0.0,1.866667, RGB=118,70,51, SURF_ID='门 - 框架'/ 
&OBST ID='单扇 - 与墙齐:750 x 2000mm:385951', XB=29.46875,29.96875,8.485714,8.957143,0.0,1.866667, RGB=118,70,51, SURF_ID='门 - 框架'/ 
&OBST ID='单扇 - 与墙齐:750 x 2000mm:386025', XB=39.117188,39.617188,9.428571,9.9,0.0,1.866667, RGB=210,159,95, SURF_ID='门 - 嵌板'/ 
&OBST ID='单扇 - 与墙齐:750 x 2000mm:386025', XB=39.117188,39.617188,9.9,10.371429,0.0,1.866667, RGB=118,70,51, SURF_ID='门 - 框架'/ 
&OBST ID='单扇 - 与墙齐:750 x 2000mm:386137', XB=39.117188,39.617188,8.014286,8.957143,0.0,1.866667, RGB=210,159,95, SURF_ID='门 - 嵌板'/ 
&OBST ID='单扇 - 与墙齐:750 x 2000mm:386181', XB=41.148438,41.648438,8.485714,9.428571,0.0,1.866667, RGB=210,159,95, SURF_ID='门 - 嵌板'/ 
&OBST ID='单扇 - 与墙齐:750 x 2000mm:386257', XB=50.289063,51.304688,6.128571,6.628571,0.0,1.866667, RGB=210,159,95, SURF_ID='门 - 嵌板'/ 
&OBST ID='单扇 - 与墙齐:750 x 2000mm:386361', XB=51.8125,52.320313,6.128571,6.628571,0.0,1.866667, RGB=210,159,95, SURF_ID='门 - 嵌板'/ 
&OBST ID='单扇 - 与墙齐:750 x 2000mm:386361', XB=52.320313,52.828125,6.128571,6.628571,0.0,1.866667, RGB=118,70,51, SURF_ID='门 - 框架'/ 
&OBST ID='单扇 - 与墙齐:750 x 2000mm:386451', XB=39.117188,40.132813,12.257143,12.757143,0.0,1.866667, RGB=210,159,95, SURF_ID='门 - 嵌板'/ 
&OBST ID='单扇 - 与墙齐:750 x 2000mm:386691', XB=58.921875,59.429688,12.257143,12.757143,0.0,1.866667, RGB=210,159,95, SURF_ID='门 - 嵌板'/ 
&OBST ID='单扇 - 与墙齐:750 x 2000mm:386743', XB=58.414063,58.921875,5.657143,6.128571,0.0,1.866667, RGB=210,159,95, SURF_ID='门 - 嵌板'/ 
&OBST ID='单扇 - 与墙齐:750 x 2000mm:387181', XB=56.890625,57.398438,1.885714,2.385714,0.0,1.866667, RGB=210,159,95, SURF_ID='门 - 嵌板'/ 
&OBST ID='单扇 - 与墙齐:750 x 2000mm:387466', XB=52.828125,53.84375,1.885714,2.385714,0.0,1.866667, RGB=210,159,95, SURF_ID='门 - 嵌板'/ 
&OBST ID='单扇 - 与墙齐:750 x 2000mm:387514', XB=53.84375,54.34375,3.3,4.242857,0.0,1.866667, RGB=210,159,95, SURF_ID='门 - 嵌板'/ 
&OBST ID='单扇 - 与墙齐:750 x 2000mm:387610', XB=53.84375,54.34375,1.885714,2.828571,0.0,1.866667, RGB=210,159,95, SURF_ID='门 - 嵌板'/ 
&OBST ID='单扇 - 与墙齐:750 x 2000mm:387918', XB=47.75,48.765625,4.714286,5.214286,0.0,1.866667, RGB=210,159,95, SURF_ID='门 - 嵌板'/ 
&OBST ID='单扇 - 与墙齐:750 x 2000mm:388272', XB=45.210938,45.710938,4.714286,5.657143,0.0,1.866667, RGB=210,159,95, SURF_ID='门 - 嵌板'/ 
&OBST ID='单扇 - 与墙齐:750 x 2000mm:388388', XB=45.210938,46.226563,6.128571,6.628571,0.0,1.866667, RGB=210,159,95, SURF_ID='门 - 嵌板'/ 
&OBST ID='单扇 - 与墙齐:750 x 2000mm:388600', XB=36.578125,37.078125,4.714286,5.185714,0.0,1.866667, RGB=118,70,51, SURF_ID='门 - 框架'/ 
&OBST ID='单扇 - 与墙齐:750 x 2000mm:388600', XB=36.578125,37.078125,5.185714,5.657143,0.0,1.866667, RGB=210,159,95, SURF_ID='门 - 嵌板'/ 
&OBST ID='单扇 - 与墙齐:750 x 2000mm:388650', XB=35.054688,36.070313,4.714286,5.214286,0.0,1.866667, RGB=210,159,95, SURF_ID='门 - 嵌板'/ 
&OBST ID='单扇 - 与墙齐:750 x 2000mm:388710', XB=32.007813,32.507813,4.714286,5.657143,0.0,1.866667, RGB=210,159,95, SURF_ID='门 - 嵌板'/ 
&OBST ID='单扇 - 与墙齐:750 x 2000mm:388762', XB=32.515625,33.53125,6.128571,6.628571,0.0,1.866667, RGB=210,159,95, SURF_ID='门 - 嵌板'/ 
&OBST ID='单扇 - 与墙齐:750 x 2000mm:391334', XB=51.8125,52.320313,58.457143,58.957143,0.0,1.866667, RGB=118,70,51, SURF_ID='门 - 框架'/ 
&OBST ID='单扇 - 与墙齐:750 x 2000mm:391334', XB=52.320313,52.828125,58.457143,58.957143,0.0,1.866667, RGB=210,159,95, SURF_ID='门 - 嵌板'/ 
&OBST ID='单扇 - 与墙齐:750 x 2000mm:391438', XB=51.8125,52.320313,56.571429,57.042857,0.0,1.866667, RGB=118,70,51, SURF_ID='门 - 框架'/ 
&OBST ID='单扇 - 与墙齐:750 x 2000mm:391438', XB=52.320313,52.828125,56.571429,57.042857,1.366667,1.866667, RGB=118,70,51, SURF_ID='门 - 框架'/ 
&OBST ID='单扇 - 与墙齐:750 x 2000mm:391438', XB=52.320313,52.828125,56.571429,57.071429,0.0,1.866667, RGB=210,159,95, SURF_ID='门 - 嵌板'/ 
&OBST ID='单扇 - 与墙齐:750 x 2000mm:391438', XB=52.828125,53.328125,56.571429,57.042857,0.0,1.866667, RGB=118,70,51, SURF_ID='门 - 框架'/ 
&OBST ID='单扇 - 与墙齐:750 x 2000mm:391498', XB=53.335938,54.351563,56.571429,57.042857,1.366667,1.866667, RGB=118,70,51, SURF_ID='门 - 框架'/ 
&OBST ID='单扇 - 与墙齐:750 x 2000mm:391498', XB=53.335938,54.351563,56.571429,57.071429,0.0,1.866667, RGB=210,159,95, SURF_ID='门 - 嵌板'/ 
&OBST ID='单扇 - 与墙齐:750 x 2000mm:391498', XB=53.335938,53.835938,56.571429,57.042857,0.0,1.866667, RGB=118,70,51, SURF_ID='门 - 框架'/ 
&OBST ID='单扇 - 与墙齐:750 x 2000mm:391498', XB=54.351563,54.851563,56.571429,57.042857,0.0,1.866667, RGB=118,70,51, SURF_ID='门 - 框架'/ 
&OBST ID='单扇 - 与墙齐:750 x 2000mm:391550', XB=50.289063,50.796875,56.571429,57.042857,1.366667,1.866667, RGB=118,70,51, SURF_ID='门 - 框架'/ 
&OBST ID='单扇 - 与墙齐:750 x 2000mm:391550', XB=50.289063,50.796875,56.571429,57.071429,0.0,1.866667, RGB=210,159,95, SURF_ID='门 - 嵌板'/ 
&OBST ID='单扇 - 与墙齐:750 x 2000mm:391550', XB=50.289063,50.789063,56.571429,57.042857,0.0,1.866667, RGB=118,70,51, SURF_ID='门 - 框架'/ 
&OBST ID='单扇 - 与墙齐:750 x 2000mm:391550', XB=50.796875,51.296875,56.571429,57.042857,0.0,1.866667, RGB=118,70,51, SURF_ID='门 - 框架'/ 
&OBST ID='单扇 - 与墙齐:600 x 2000mm:391918', XB=51.304688,51.804688,60.342857,60.814286,0.0,1.866667, RGB=210,159,95, SURF_ID='门 - 嵌板'/ 
&OBST ID='单扇 - 与墙齐:600 x 2000mm:391971', XB=51.304688,51.804688,59.4,59.871429,0.0,1.866667, RGB=210,159,95, SURF_ID='门 - 嵌板'/ 
&OBST ID='双面嵌板木门 1:1500 x 2100mm:392318', XB=35.054688,36.578125,60.814286,61.314286,0.0,1.866667, RGB=247,48,0, SURF_ID='IfcDoor'/ 
&OBST ID='双面嵌板木门 1:1500 x 2100mm:392366', XB=15.25,16.773438,12.257143,12.757143,0.0,1.866667, RGB=247,48,0, SURF_ID='IfcDoor'/ 
&OBST ID='双面嵌板木门 1:1500 x 2100mm:392666', XB=17.28125,18.804688,12.257143,12.757143,0.0,1.866667, RGB=247,48,0, SURF_ID='IfcDoor'/ 
&OBST ID='双面嵌板木门 1:1500 x 2100mm:392690', XB=26.929688,28.453125,12.257143,12.757143,0.0,1.866667, RGB=247,48,0, SURF_ID='IfcDoor'/ 
&OBST ID='单扇 - 与墙齐:600 x 1800mm:402103', XB=54.351563,54.859375,4.714286,5.185714,0.0,1.866667, RGB=210,159,95, SURF_ID='门 - 嵌板'/ 
&OBST ID='单扇 - 与墙齐:600 x 1800mm:402174', XB=56.890625,57.398438,5.185714,5.685714,0.0,1.866667, RGB=210,159,95, SURF_ID='门 - 嵌板'/ 
&OBST ID='双面嵌板木门 1:1500 x 2100mm:402592', XB=51.8125,52.3125,1.885714,3.771429,0.0,1.866667, RGB=247,48,0, SURF_ID='IfcDoor'/ 
&OBST ID='四扇推拉门 3:3600 x 2100mm:447936', XB=1.03125,1.53125,12.257143,30.642857,0.0,8.4, RGB=247,48,0, SURF_ID='IfcDoor'/ 
&OBST ID='单扇 - 与墙齐:600 x 1800mm:454657', XB=26.421875,26.929688,49.028571,49.528571,0.0,1.866667, RGB=210,159,95, SURF_ID='门 - 嵌板'/ 
&OBST ID='单扇 - 与墙齐:600 x 1800mm:454657', XB=26.929688,27.4375,49.028571,49.528571,0.0,1.866667, RGB=118,70,51, SURF_ID='门 - 框架'/ 
&OBST ID='单扇 - 与墙齐:600 x 1800mm:454657', XB=26.929688,27.4375,49.5,50.0,0.0,1.866667, RGB=118,70,51, SURF_ID='门 - 框架'/ 
&OBST ID='四扇推拉门 3:3600 x 2100mm:516361', XB=61.96875,62.46875,30.642857,49.5,0.0,8.4, RGB=247,48,0, SURF_ID='IfcDoor'/ 
&OBST ID='楼板:120:430305', XB=1.03125,61.96875,6.128571,63.171429,0.0,0.5, SURF_ID='默认楼板'/ 
&OBST ID='楼板:120:430305', XB=29.46875,57.90625,0.0,6.128571,0.0,0.5, SURF_ID='默认楼板'/ 
&OBST ID='楼板:120:430305', XB=50.289063,61.96875,63.171429,65.057143,0.0,0.5, COLOR='GRAY 50', SURF_ID='默认楼板'/ 
&OBST ID='基本墙:常规 - 200mm:446572', XB=1.03125,1.53125,12.257143,19.328571,8.4,11.2, COLOR='GRAY', SURF_ID='默认墙'/ 
&OBST ID='基本墙:常规 - 200mm:446572', XB=1.03125,1.53125,41.957143,49.028571,8.4,11.2, COLOR='GRAY', SURF_ID='默认墙'/ 
&OBST ID='基本墙:常规 - 200mm:446572', XB=1.03125,1.53125,19.328571,29.7,8.4,12.133333, COLOR='GRAY', SURF_ID='默认墙'/ 
&OBST ID='基本墙:常规 - 200mm:446572', XB=1.03125,1.53125,32.057143,41.957143,8.4,12.133333, COLOR='GRAY', SURF_ID='默认墙'/ 
&OBST ID='基本墙:常规 - 200mm:446572', XB=1.03125,1.53125,29.7,32.057143,8.4,13.066667, COLOR='GRAY', SURF_ID='默认墙'/ 
&OBST ID='基本墙:常规 - 200mm:504654', XB=61.96875,62.46875,12.257143,19.328571,8.4,11.2, COLOR='GRAY', SURF_ID='默认墙'/ 
&OBST ID='基本墙:常规 - 200mm:504654', XB=61.96875,62.46875,41.957143,49.028571,8.4,11.2, COLOR='GRAY', SURF_ID='默认墙'/ 
&OBST ID='基本墙:常规 - 200mm:504654', XB=61.96875,62.46875,19.328571,29.7,8.4,12.133333, COLOR='GRAY', SURF_ID='默认墙'/ 
&OBST ID='基本墙:常规 - 200mm:504654', XB=61.96875,62.46875,32.057143,41.957143,8.4,12.133333, COLOR='GRAY', SURF_ID='默认墙'/ 
&OBST ID='基本墙:常规 - 200mm:504654', XB=61.96875,62.46875,29.7,32.057143,8.4,13.066667, COLOR='GRAY', SURF_ID='默认墙'/ 
&OBST ID='基本墙:常规 - 200mm:340538', XB=28.960938,40.640625,0.0,0.5,0.0,3.733333, COLOR='GRAY', SURF_ID='默认墙'/ 
&OBST ID='基本墙:常规 - 200mm:340538', XB=40.640625,41.65625,0.0,0.5,1.866667,3.733333, COLOR='GRAY', SURF_ID='默认墙'/ 
&OBST ID='基本墙:常规 - 200mm:340538', XB=41.65625,57.90625,0.0,0.5,0.0,3.733333, COLOR='GRAY', SURF_ID='默认墙'/ 
&OBST ID='基本墙:常规 - 200mm:340817', XB=57.90625,58.40625,0.0,3.771429,0.0,3.733333, COLOR='GRAY', SURF_ID='默认墙'/ 
&OBST ID='基本墙:常规 - 200mm:340817', XB=57.90625,58.40625,3.771429,5.657143,0.0,4.666667, COLOR='GRAY', SURF_ID='默认墙'/ 
&OBST ID='基本墙:常规 - 200mm:341162', XB=2.046875,15.25,12.257143,12.757143,0.0,3.733333, COLOR='GRAY', SURF_ID='默认墙'/ 
&OBST ID='基本墙:常规 - 200mm:341162', XB=15.25,16.773438,12.257143,12.757143,1.866667,3.733333, COLOR='GRAY', SURF_ID='默认墙'/ 
&OBST ID='基本墙:常规 - 200mm:341162', XB=16.773438,17.28125,12.257143,12.757143,0.0,3.733333, COLOR='GRAY', SURF_ID='默认墙'/ 
&OBST ID='基本墙:常规 - 200mm:341162', XB=17.28125,18.804688,12.257143,12.757143,1.866667,3.733333, COLOR='GRAY', SURF_ID='默认墙'/ 
&OBST ID='基本墙:常规 - 200mm:341162', XB=18.804688,20.328125,12.257143,12.757143,0.0,3.733333, COLOR='GRAY', SURF_ID='默认墙'/ 
! ... 435 like lines cut
&OBST ID='单扇 - 与墙齐:750 x 2000mm:416094', XB=5.601563,6.101563,52.8,53.742857,3.733333,5.6, RGB=210,159,95, SURF_ID='门 - 嵌板'/ 
&OBST ID='单扇 - 与墙齐:750 x 2000mm:416172', XB=6.109375,6.617188,49.5,50.0,3.733333,5.6, RGB=210,159,95, SURF_ID='门 - 嵌板'/ 
&OBST ID='单扇 - 与墙齐:750 x 2000mm:416172', XB=6.617188,7.125,49.028571,49.528571,3.733333,5.6, RGB=118,70,51, SURF_ID='门 - 框架'/ 
&OBST ID='单扇 - 与墙齐:750 x 2000mm:416172', XB=6.617188,7.125,49.5,50.0,3.733333,5.6, RGB=118,70,51, SURF_ID='门 - 框架'/ 
&OBST ID='单扇 - 与墙齐:750 x 2000mm:416274', XB=15.757813,16.265625,49.971429,50.914286,3.733333,5.6, RGB=210,159,95, SURF_ID='门 - 嵌板'/ 
&OBST ID='单扇 - 与墙齐:750 x 2000mm:416382', XB=17.789063,18.296875,53.271429,53.771429,3.733333,5.6, RGB=210,159,95, SURF_ID='门 - 嵌板'/ 
&OBST ID='单扇 - 与墙齐:750 x 2000mm:416450', XB=21.34375,22.359375,49.5,50.0,3.733333,5.6, RGB=210,159,95, SURF_ID='门 - 嵌板'/ 
&OBST ID='单扇 - 与墙齐:750 x 2000mm:416520', XB=30.484375,30.984375,51.385714,52.328571,3.733333,5.6, RGB=210,159,95, SURF_ID='门 - 嵌板'/ 
&OBST ID='单扇 - 与墙齐:750 x 2000mm:416786', XB=37.59375,38.609375,50.914286,51.414286,3.733333,5.6, RGB=210,159,95, SURF_ID='门 - 嵌板'/ 
&OBST ID='单扇 - 与墙齐:750 x 2000mm:416878', XB=40.640625,41.148438,50.914286,51.414286,3.733333,5.6, RGB=210,159,95, SURF_ID='门 - 嵌板'/ 
&OBST ID='单扇 - 与墙齐:750 x 2000mm:417072', XB=34.039063,34.546875,50.914286,51.414286,3.733333,5.6, RGB=210,159,95, SURF_ID='门 - 嵌板'/ 
&OBST ID='单扇 - 与墙齐:750 x 2000mm:417072', XB=34.546875,35.054688,50.914286,51.414286,3.733333,5.6, RGB=118,70,51, SURF_ID='门 - 框架'/ 
&OBST ID='单扇 - 与墙齐:750 x 2000mm:417372', XB=35.054688,35.554688,49.971429,50.914286,3.733333,5.6, RGB=210,159,95, SURF_ID='门 - 嵌板'/ 
&OBST ID='单扇 - 与墙齐:750 x 2000mm:417452', XB=44.703125,45.71875,50.914286,51.414286,3.733333,5.6, RGB=210,159,95, SURF_ID='门 - 嵌板'/ 
&OBST ID='单扇 - 与墙齐:750 x 2000mm:417562', XB=44.703125,45.203125,52.8,53.742857,3.733333,5.6, RGB=210,159,95, SURF_ID='门 - 嵌板'/ 
&OBST ID='单扇 - 与墙齐:750 x 2000mm:417706', XB=54.859375,55.875,50.914286,51.414286,3.733333,5.6, RGB=210,159,95, SURF_ID='门 - 嵌板'/ 
&OBST ID='单扇 - 与墙齐:750 x 2000mm:417846', XB=56.382813,57.398438,52.8,53.3,3.733333,5.6, RGB=210,159,95, SURF_ID='门 - 嵌板'/ 
&OBST ID='单扇 - 与墙齐:600 x 2000mm:418461', XB=57.398438,57.898438,52.8,53.271429,3.733333,5.6, RGB=210,159,95, SURF_ID='门 - 嵌板'/ 
&OBST ID='单扇 - 与墙齐:600 x 2000mm:418582', XB=58.921875,59.429688,51.857143,52.328571,3.733333,5.6, RGB=210,159,95, SURF_ID='门 - 嵌板'/ 
&OBST ID='单扇 - 与墙齐:750 x 2000mm:419849', XB=57.398438,57.898438,50.442857,51.385714,3.733333,5.6, RGB=210,159,95, SURF_ID='门 - 嵌板'/ 
&OBST ID='单扇 - 与墙齐:750 x 2000mm:419963', XB=51.304688,52.320313,49.5,50.0,3.733333,5.6, RGB=210,159,95, SURF_ID='门 - 嵌板'/ 
&OBST ID='单扇 - 与墙齐:750 x 2000mm:420534', XB=57.398438,57.898438,8.485714,9.428571,3.733333,5.6, RGB=210,159,95, SURF_ID='门 - 嵌板'/ 
&OBST ID='单扇 - 与墙齐:750 x 2000mm:420852', XB=57.398438,57.898438,6.6,7.071429,3.733333,5.6, RGB=210,159,95, SURF_ID='门 - 嵌板'/ 
&OBST ID='单扇 - 与墙齐:750 x 2000mm:420968', XB=44.703125,45.210938,8.014286,8.485714,3.733333,5.6, RGB=118,70,51, SURF_ID='门 - 框架'/ 
&OBST ID='单扇 - 与墙齐:750 x 2000mm:420968', XB=44.703125,45.210938,7.542857,8.014286,5.1,5.6, RGB=118,70,51, SURF_ID='门 - 框架'/ 
&OBST ID='单扇 - 与墙齐:750 x 2000mm:420968', XB=44.703125,45.210938,7.542857,8.042857,3.733333,5.6, RGB=118,70,51, SURF_ID='门 - 框架'/ 
&OBST ID='单扇 - 与墙齐:750 x 2000mm:420968', XB=45.210938,45.710938,7.542857,8.014286,3.733333,5.6, RGB=210,159,95, SURF_ID='门 - 嵌板'/ 
&OBST ID='单扇 - 与墙齐:750 x 2000mm:421122', XB=41.65625,42.164063,10.371429,10.871429,3.733333,5.6, RGB=210,159,95, SURF_ID='门 - 嵌板'/ 
&OBST ID='单扇 - 与墙齐:750 x 2000mm:421122', XB=42.164063,42.671875,10.371429,10.871429,3.733333,5.6, RGB=118,70,51, SURF_ID='门 - 框架'/ 
&OBST ID='单扇 - 与墙齐:750 x 2000mm:421122', XB=42.164063,42.671875,10.842857,11.342857,3.733333,5.6, RGB=118,70,51, SURF_ID='门 - 框架'/ 
&OBST ID='单扇 - 与墙齐:750 x 2000mm:421192', XB=40.132813,40.632813,7.071429,8.014286,3.733333,5.6, RGB=210,159,95, SURF_ID='门 - 嵌板'/ 
&OBST ID='单扇 - 与墙齐:750 x 2000mm:421258', XB=34.039063,34.539063,8.957143,9.9,3.733333,5.6, RGB=210,159,95, SURF_ID='门 - 嵌板'/ 
&OBST ID='单扇 - 与墙齐:750 x 2000mm:421308', XB=26.929688,27.945313,10.371429,10.871429,3.733333,5.6, RGB=210,159,95, SURF_ID='门 - 嵌板'/ 
&OBST ID='单扇 - 与墙齐:750 x 2000mm:421376', XB=21.34375,22.359375,10.371429,10.871429,3.733333,5.6, RGB=210,159,95, SURF_ID='门 - 嵌板'/ 
&OBST ID='单扇 - 与墙齐:750 x 2000mm:421452', XB=20.835938,21.335938,10.842857,11.785714,3.733333,5.6, RGB=210,159,95, SURF_ID='门 - 嵌板'/ 
&OBST ID='单扇 - 与墙齐:750 x 2000mm:421518', XB=17.28125,17.789063,8.485714,9.428571,5.1,5.6, RGB=118,70,51, SURF_ID='门 - 框架'/ 
&OBST ID='单扇 - 与墙齐:750 x 2000mm:421518', XB=17.28125,17.789063,8.485714,8.985714,3.733333,5.6, RGB=118,70,51, SURF_ID='门 - 框架'/ 
&OBST ID='单扇 - 与墙齐:750 x 2000mm:421518', XB=17.28125,17.789063,9.428571,9.928571,3.733333,5.6, RGB=118,70,51, SURF_ID='门 - 框架'/ 
&OBST ID='单扇 - 与墙齐:750 x 2000mm:421518', XB=17.28125,17.78125,8.485714,9.428571,3.733333,5.6, RGB=210,159,95, SURF_ID='门 - 嵌板'/ 
&OBST ID='单扇 - 与墙齐:750 x 2000mm:421608', XB=11.1875,11.6875,8.014286,8.485714,3.733333,5.6, RGB=210,159,95, SURF_ID='门 - 嵌板'/ 
&OBST ID='单扇 - 与墙齐:750 x 2000mm:421608', XB=11.1875,11.6875,8.485714,8.957143,3.733333,5.6, RGB=118,70,51, SURF_ID='门 - 框架'/ 
&OBST ID='单扇 - 与墙齐:750 x 2000mm:421658', XB=7.125,8.140625,10.842857,11.342857,3.733333,5.6, RGB=210,159,95, SURF_ID='门 - 嵌板'/ 
&OBST ID='单扇 - 与墙齐:750 x 2000mm:421718', XB=56.890625,57.390625,10.371429,10.842857,3.733333,5.6, RGB=118,70,51, SURF_ID='门 - 框架'/ 
&OBST ID='单扇 - 与墙齐:750 x 2000mm:421718', XB=57.398438,57.898438,10.371429,10.842857,3.733333,5.6, RGB=118,70,51, SURF_ID='门 - 框架'/ 
&OBST ID='单扇 - 与墙齐:750 x 2000mm:421718', XB=57.398438,57.898438,10.842857,11.314286,3.733333,5.6, RGB=210,159,95, SURF_ID='门 - 嵌板'/ 
&OBST ID='单扇 - 与墙齐:600 x 2000mm:422553', XB=61.460938,61.96875,10.842857,11.314286,5.1,5.6, RGB=118,70,51, SURF_ID='门 - 框架'/ 
&OBST ID='单扇 - 与墙齐:600 x 2000mm:422553', XB=61.460938,61.96875,11.314286,11.814286,3.733333,5.6, RGB=210,159,95, SURF_ID='门 - 嵌板'/ 
&OBST ID='单扇 - 与墙齐:600 x 2000mm:422553', XB=61.460938,61.960938,10.842857,11.314286,3.733333,5.6, RGB=118,70,51, SURF_ID='门 - 框架'/ 
&OBST ID='单扇 - 与墙齐:600 x 2000mm:422553', XB=61.96875,62.46875,10.842857,11.314286,3.733333,5.6, RGB=118,70,51, SURF_ID='门 - 框架'/ 
&OBST ID='单扇 - 与墙齐:600 x 2000mm:422621', XB=60.445313,60.953125,10.842857,11.314286,5.1,5.6, RGB=118,70,51, SURF_ID='门 - 框架'/ 
&OBST ID='单扇 - 与墙齐:600 x 2000mm:422621', XB=60.445313,60.953125,11.314286,11.814286,3.733333,5.6, RGB=210,159,95, SURF_ID='门 - 嵌板'/ 
&OBST ID='单扇 - 与墙齐:600 x 2000mm:422621', XB=60.445313,60.945313,10.842857,11.314286,3.733333,5.6, RGB=118,70,51, SURF_ID='门 - 框架'/ 
&OBST ID='单扇 - 与墙齐:600 x 2000mm:422621', XB=60.953125,61.453125,10.842857,11.314286,3.733333,5.6, RGB=118,70,51, SURF_ID='门 - 框架'/ 
&OBST ID='单扇 - 与墙齐:600 x 2000mm:422657', XB=56.382813,56.890625,11.314286,11.814286,3.733333,5.6, RGB=210,159,95, SURF_ID='门 - 嵌板'/ 
&OBST ID='双面嵌板木门 1:1500 x 2100mm:422789', XB=54.351563,55.875,11.314286,11.814286,3.733333,5.6, RGB=247,48,0, SURF_ID='IfcDoor'/ 
&OBST ID='单扇 - 与墙齐:750 x 2000mm:423107', XB=51.304688,51.8125,11.314286,11.814286,3.733333,5.6, RGB=210,159,95, SURF_ID6='门 - 嵌板','门 - 嵌板','门 - 嵌板','门 - 框架','门 - 嵌板','门 - 嵌板'/ 
&OBST ID='单扇 - 与墙齐:750 x 2000mm:423107', XB=51.8125,52.320313,11.314286,11.814286,3.733333,5.6, RGB=210,159,95, SURF_ID='门 - 嵌板'/ 
&OBST ID='单扇 - 与墙齐:750 x 2000mm:423109', XB=52.828125,53.335938,11.314286,11.814286,3.733333,5.6, RGB=118,70,51, SURF_ID='门 - 框架'/ 
&OBST ID='单扇 - 与墙齐:750 x 2000mm:423109', XB=53.335938,53.84375,11.314286,11.814286,3.733333,5.6, RGB=210,159,95, SURF_ID='门 - 嵌板'/ 
&OBST ID='双面嵌板木门 1:1500 x 2100mm:423182', XB=32.007813,33.53125,11.314286,11.785714,5.1,5.6, RGB=247,48,0, SURF_ID='IfcDoor'/ 
&OBST ID='双面嵌板木门 1:1500 x 2100mm:423182', XB=32.515625,33.023438,11.314286,11.785714,4.166667,4.666667, RGB=247,48,0, SURF_ID='IfcDoor'/ 
&OBST ID='双面嵌板木门 1:1500 x 2100mm:423182', XB=32.007813,33.53125,11.314286,11.814286,3.733333,5.6, RGB=247,48,0, SURF_ID='IfcDoor'/ 
&OBST ID='双面嵌板木门 1:1500 x 2100mm:423182', XB=32.007813,32.507813,11.314286,11.785714,3.733333,5.6, RGB=247,48,0, SURF_ID='IfcDoor'/ 
&OBST ID='双面嵌板木门 1:1500 x 2100mm:423182', XB=33.53125,34.03125,11.314286,11.785714,3.733333,5.6, RGB=247,48,0, SURF_ID='IfcDoor'/ 
&OBST ID='单扇 - 与墙齐:750 x 2000mm:423310', XB=9.15625,9.664063,11.314286,11.814286,3.733333,5.6, RGB=210,159,95, SURF_ID='门 - 嵌板'/ 
&OBST ID='单扇 - 与墙齐:750 x 2000mm:423400', XB=10.171875,10.679688,11.314286,11.814286,3.733333,5.6, RGB=210,159,95, SURF_ID='门 - 嵌板'/ 
&OBST ID='双面嵌板木门 1:1500 x 2100mm:423476', XB=2.046875,3.570313,11.314286,11.814286,3.733333,5.6, RGB=247,48,0, SURF_ID='IfcDoor'/ 
&OBST ID='双面嵌板木门 1:1500 x 2400mm:425860', XB=47.242188,48.257813,49.971429,50.471429,3.733333,5.6, RGB=247,48,0, SURF_ID='IfcDoor'/ 
&OBST ID='双面嵌板木门 1:1500 x 2400mm:425959', XB=49.273438,50.289063,49.971429,50.471429,3.733333,5.6, RGB=247,48,0, SURF_ID='IfcDoor'/ 
&OBST ID='楼板:120:433935', XB=1.03125,61.96875,49.028571,63.171429,3.233333,3.733333, SURF_ID='默认楼板'/ 
&OBST ID='楼板:120:433935', XB=50.289063,61.96875,63.171429,65.057143,3.233333,3.733333, SURF_ID='默认楼板'/ 
&OBST ID='楼板:120:433935:2', XB=1.03125,61.96875,6.128571,12.257143,3.233333,3.733333, COLOR='GRAY 50', SURF_ID='默认楼板'/ 
&OBST ID='楼板:120:433935:2', XB=29.46875,57.90625,0.0,6.128571,3.233333,3.733333, COLOR='GRAY 50', SURF_ID='默认楼板'/ 
&OBST ID='楼板:120:434975', XB=1.03125,61.96875,49.5,55.157143,3.233333,3.733333, COLOR='GRAY 50', SURF_ID='默认楼板'/ 
&OBST ID='楼板:120:434975:2', XB=1.03125,61.96875,6.128571,12.257143,3.233333,3.733333, COLOR='GRAY 50', SURF_ID='默认楼板'/ 
&OBST ID='基本墙:常规 - 200mm:406470', XB=1.03125,10.171875,55.157143,55.628571,3.733333,7.466667, COLOR='GRAY', SURF_ID='默认墙'/ 
&OBST ID='基本墙:常规 - 200mm:406470', XB=10.171875,11.695313,55.157143,55.628571,3.733333,5.6, COLOR='GRAY', SURF_ID='默认墙'/ 
&OBST ID='基本墙:常规 - 200mm:406470', XB=11.695313,14.742188,55.157143,55.628571,3.733333,7.466667, COLOR='GRAY', SURF_ID='默认墙'/ 
&OBST ID='基本墙:常规 - 200mm:406470', XB=14.742188,15.757813,55.157143,55.628571,3.733333,5.6, COLOR='GRAY', SURF_ID='默认墙'/ 
&OBST ID='基本墙:常规 - 200mm:406470', XB=15.757813,26.421875,55.157143,55.628571,3.733333,7.466667, SURF_ID='默认墙'/ 
&OBST ID='基本墙:常规 - 200mm:406470', XB=26.421875,27.4375,55.157143,55.628571,3.733333,5.6, COLOR='GRAY', SURF_ID='默认墙'/ 
&OBST ID='基本墙:常规 - 200mm:406470', XB=27.4375,30.484375,55.157143,55.628571,3.733333,7.466667, COLOR='GRAY', SURF_ID='默认墙'/ 
&OBST ID='基本墙:常规 - 200mm:406470', XB=30.484375,32.007813,55.157143,55.628571,3.733333,5.6, COLOR='GRAY', SURF_ID='默认墙'/ 
&OBST ID='基本墙:常规 - 200mm:406470', XB=32.007813,52.320313,55.157143,55.628571,3.733333,7.466667, COLOR='GRAY', SURF_ID='默认墙'/ 
&OBST ID='基本墙:常规 - 200mm:406470', XB=52.320313,53.335938,55.157143,55.628571,3.733333,5.6, COLOR='GRAY', SURF_ID='默认墙'/ 
&OBST ID='基本墙:常规 - 200mm:406470', XB=53.335938,56.382813,55.157143,55.628571,3.733333,7.466667, COLOR='GRAY', SURF_ID='默认墙'/ 
&OBST ID='基本墙:常规 - 200mm:406470', XB=56.382813,57.90625,55.157143,55.628571,3.733333,5.6, COLOR='GRAY', SURF_ID='默认墙'/ 
&OBST ID='基本墙:常规 - 200mm:406470', XB=57.90625,61.96875,55.157143,55.628571,3.733333,7.466667, COLOR='GRAY', SURF_ID='默认墙'/ 
&OBST ID='基本墙:常规 - 200mm:406470', XB=10.171875,11.695313,55.157143,55.628571,6.966667,7.466667, COLOR='GRAY', SURF_ID='默认墙'/ 
&OBST ID='基本墙:常规 - 200mm:406470', XB=14.742188,15.757813,55.157143,55.628571,6.966667,7.466667, COLOR='GRAY', SURF_ID='默认墙'/ 
&OBST ID='基本墙:常规 - 200mm:406470', XB=26.421875,27.4375,55.157143,55.628571,6.966667,7.466667, COLOR='GRAY', SURF_ID='默认墙'/ 
&OBST ID='基本墙:常规 - 200mm:406470', XB=30.484375,32.007813,55.157143,55.628571,6.966667,7.466667, COLOR='GRAY', SURF_ID='默认墙'/ 
&OBST ID='基本墙:常规 - 200mm:406470', XB=52.320313,53.335938,55.157143,55.628571,6.966667,7.466667, COLOR='GRAY', SURF_ID='默认墙'/ 
&OBST ID='基本墙:常规 - 200mm:406470', XB=56.382813,57.90625,55.157143,55.628571,6.966667,7.466667, COLOR='GRAY', SURF_ID='默认墙'/ 
&OBST ID='基本墙:常规 - 200mm:407470', XB=1.03125,3.0625,6.128571,6.628571,3.733333,7.466667, COLOR='GRAY', SURF_ID='默认墙'/ 
&OBST ID='基本墙:常规 - 200mm:407470', XB=3.0625,4.078125,6.128571,6.628571,3.733333,4.666667, COLOR='GRAY', SURF_ID='默认墙'/ 
&OBST ID='基本墙:常规 - 200mm:407470', XB=3.0625,4.078125,6.128571,6.628571,6.533333,7.466667, COLOR='GRAY', SURF_ID='默认墙'/ 
&OBST ID='基本墙:常规 - 200mm:407470', XB=4.078125,20.835938,6.128571,6.628571,3.733333,7.466667, COLOR='GRAY', SURF_ID='默认墙'/ 
&OBST ID='基本墙:常规 - 200mm:407470', XB=20.835938,22.359375,6.128571,6.628571,3.733333,5.6, COLOR='GRAY', SURF_ID='默认墙'/ 
&OBST ID='基本墙:常规 - 200mm:407470', XB=20.835938,22.359375,6.128571,6.628571,6.533333,7.466667, COLOR='GRAY', SURF_ID='默认墙'/ 
! ... 206 like lines cut
&OBST ID='基本墙:常规 - 200mm:447309', XB=1.03125,1.53125,49.5,55.157143,3.733333,7.466667, SURF_ID='默认墙'/ 
&OBST ID='基本墙:常规 - 200mm:505135', XB=61.96875,62.46875,6.128571,12.257143,3.733333,7.466667, COLOR='GRAY', SURF_ID='默认墙'/ 
&OBST ID='基本墙:常规 - 200mm:505735', XB=61.96875,62.46875,49.5,55.157143,3.733333,7.466667, COLOR='GRAY', SURF_ID='默认墙'/ 
&OBST ID='楼板:120:435831', XB=1.03125,61.96875,6.128571,12.257143,6.966667,7.466667, SURF_ID='默认楼板'/ 
&OBST ID='楼板:120:435831:2', XB=1.03125,61.96875,49.5,55.157143,6.966667,7.466667, SURF_ID='默认楼板'/ 
&OBST ID='基本墙:常规 - 200mm:435320', XB=1.03125,3.0625,49.028571,49.5,7.466667,11.2, COLOR='GRAY', SURF_ID='默认墙'/ 
&OBST ID='基本墙:常规 - 200mm:435320', XB=60.445313,61.96875,49.028571,49.5,7.466667,11.2, COLOR='GRAY', SURF_ID='默认墙'/ 
&OBST ID='基本墙:常规 - 200mm:435320', XB=3.0625,60.445313,49.028571,49.5,6.966667,7.466667, COLOR='GRAY', SURF_ID='默认墙'/ 
&OBST ID='基本墙:常规 - 200mm:435320', XB=3.0625,60.445313,49.028571,49.5,10.0,11.2, COLOR='GRAY', SURF_ID='默认墙'/ 
&OBST ID='基本墙:常规 - 200mm:435321', XB=1.03125,3.0625,12.257143,12.757143,7.466667,11.2, COLOR='GRAY', SURF_ID='默认墙'/ 
&OBST ID='基本墙:常规 - 200mm:435321', XB=60.445313,61.96875,12.257143,12.757143,7.466667,11.2, COLOR='GRAY', SURF_ID='默认墙'/ 
&OBST ID='基本墙:常规 - 200mm:442652', XB=1.03125,1.53125,6.128571,12.257143,7.466667,9.333333, COLOR='GRAY', SURF_ID='默认墙'/ 
&OBST ID='基本墙:常规 - 200mm:442887', XB=1.03125,1.53125,49.5,55.628571,7.466667,9.333333, COLOR='GRAY', SURF_ID='默认墙'/ 
&OBST ID='基本墙:常规 - 200mm:443494', XB=61.96875,62.46875,6.128571,12.257143,7.466667,9.333333, COLOR='GRAY', SURF_ID='默认墙'/ 
&OBST ID='基本墙:常规 - 200mm:443588', XB=61.96875,62.46875,49.5,55.157143,7.466667,9.333333, COLOR='GRAY', SURF_ID='默认墙'/ 
&OBST ID='基本屋顶:200:435924', XB=1.03125,61.96875,16.971429,19.328571,11.2,12.133333, SURF_ID='默认屋顶'/ 
&OBST ID='基本屋顶:200:435924', XB=1.03125,61.96875,41.957143,44.314286,11.2,12.133333, SURF_ID='默认屋顶'/ 
&OBST ID='基本屋顶:200:435924', XB=1.03125,61.96875,27.342857,29.7,12.133333,13.066667, SURF_ID='默认屋顶'/ 
&OBST ID='基本屋顶:200:435924', XB=1.03125,61.96875,32.057143,33.942857,12.133333,13.066667, SURF_ID='默认屋顶'/ 
&OBST ID='基本屋顶:200:435924', XB=1.03125,61.96875,12.257143,16.971429,10.7,11.2, SURF_ID='默认屋顶'/ 
&OBST ID='基本屋顶:200:435924', XB=1.03125,61.96875,44.314286,49.028571,10.7,11.2, SURF_ID='默认屋顶'/ 
&OBST ID='基本屋顶:200:435924', XB=1.03125,61.96875,19.328571,27.342857,11.633333,12.133333, SURF_ID='默认屋顶'/ 
&OBST ID='基本屋顶:200:435924', XB=1.03125,61.96875,33.942857,41.957143,11.633333,12.133333, SURF_ID='默认屋顶'/ 
&OBST ID='基本屋顶:200:435924', XB=1.03125,61.96875,29.7,32.057143,12.566667,13.066667, SURF_ID='默认屋顶'/ 
&OBST ID='基本屋顶:200:436581', XB=28.960938,57.90625,2.357143,3.771429,3.733333,4.666667, RGB=0,127,0, SURF_ID='默认屋顶'/ 
&OBST ID='基本屋顶:200:436581', XB=28.960938,57.90625,0.0,2.357143,3.233333,3.733333, RGB=0,127,0, SURF_ID='默认屋顶'/ 
&OBST ID='基本屋顶:200:436581', XB=28.960938,57.90625,3.771429,6.128571,4.166667,4.666667, RGB=0,127,0, SURF_ID='默认屋顶'/ 
&OBST ID='基本屋顶:200:436837', XB=49.78125,61.96875,61.757143,62.7,3.733333,4.666667, RGB=0,127,0, SURF_ID='默认屋顶'/ 
&OBST ID='基本屋顶:200:436837', XB=49.78125,61.96875,56.1,57.514286,4.666667,5.6, RGB=0,127,0, SURF_ID='默认屋顶'/ 
&OBST ID='基本屋顶:200:436837', XB=49.78125,61.96875,62.7,65.057143,3.233333,3.733333, RGB=0,127,0, SURF_ID='默认屋顶'/ 
&OBST ID='基本屋顶:200:436837', XB=49.78125,61.96875,57.514286,61.757143,4.166667,4.666667, SURF_ID='默认屋顶'/ 
&OBST ID='基本屋顶:200:436837', XB=49.78125,61.96875,55.628571,56.1,5.1,5.6, RGB=0,127,0, SURF_ID='默认屋顶'/ 
&OBST ID='基本屋顶:200:437989', XB=1.03125,49.78125,60.342857,61.285714,3.733333,4.666667, RGB=0,127,0, SURF_ID='默认屋顶'/ 
&OBST ID='基本屋顶:200:437989', XB=1.03125,49.78125,56.1,57.042857,4.666667,5.6, RGB=0,127,0, SURF_ID='默认屋顶'/ 
&OBST ID='基本屋顶:200:437989', XB=1.03125,49.78125,57.042857,60.342857,4.166667,4.666667, SURF_ID='默认屋顶'/ 
&OBST ID='基本屋顶:200:437989', XB=1.03125,49.78125,55.628571,56.1,5.1,5.6, RGB=0,127,0, SURF_ID='默认屋顶'/ 
&OBST ID='木托盘堆_01', XB=53.0,56.0,52.0,54.0,0.5,1.5, SURF_ID='胶合板，面层'/ 
&OBST ID='瓦楞纸箱堆_01', XB=55.0,57.0,58.0,60.0,0.5,1.5, SURF_ID='瓦楞纸板'/ 
&OBST ID='备用轮胎堆_01', XB=55.0,57.0,34.0,36.0,0.5,1.5, SURF_ID='橡胶，黑色'/ 
&OBST ID='塑料周转箱_01', XB=57.0,59.0,50.0,54.0,0.5,1.5, SURF_ID='塑料 - 黑色'/ 
&OBST ID='维修工作台_01', XB=50.0,53.0,28.0,30.0,0.5,1.5, SURF_ID='胶合板，面层'/ 
&OBST ID='维修工作台_02', XB=50.0,53.0,36.0,38.0,0.5,1.5, SURF_ID='胶合板，面层'/ 
&OBST ID='工具车_01', XB=49.0,50.0,33.0,34.0,0.5,1.5, SURF_ID='塑料 - 黑色'/ 
&OBST ID='工具车_02', XB=49.0,50.0,39.0,40.0,0.5,1.5, SURF_ID='塑料 - 黑色'/ 
&OBST ID='擦拭布箱_01', XB=53.0,54.0,32.0,33.0,0.5,1.5, SURF_ID='纺织品 - 蓝灰'/ 
&OBST ID='办公桌_01', XB=18.0,20.0,59.0,60.0,0.5,1.5, SURF_ID='胶合板，面层'/ 
&OBST ID='办公桌_02', XB=22.0,24.0,59.0,60.0,0.5,1.5, SURF_ID='胶合板，面层'/ 
&OBST ID='会议桌_01', XB=8.0,12.0,58.0,60.0,0.5,1.5, SURF_ID='胶合板，面层'/ 
&OBST ID='办公椅_01', XB=18.0,19.0,61.0,62.0,0.5,1.5, SURF_ID='纺织品 - 蓝灰'/ 
&OBST ID='办公椅_02', XB=22.0,23.0,61.0,62.0,0.5,1.5, SURF_ID='纺织品 - 蓝灰'/ 
&OBST ID='会议椅_01', XB=8.0,9.0,60.0,61.0,0.5,1.5, SURF_ID='纺织品 - 蓝灰'/ 
&OBST ID='会议椅_02', XB=11.0,12.0,60.0,61.0,0.5,1.5, SURF_ID='纺织品 - 蓝灰'/ 
&OBST ID='会议椅_03', XB=8.0,9.0,57.0,58.0,0.5,1.5, SURF_ID='纺织品 - 蓝灰'/ 
&OBST ID='会议椅_04', XB=11.0,12.0,57.0,58.0,0.5,1.5, SURF_ID='纺织品 - 蓝灰'/ 
&OBST ID='文件纸张堆_01', XB=24.0,25.0,60.0,61.0,0.5,1.5, SURF_ID='纸张'/ 
&OBST ID='电子设备_01', XB=20.0,21.0,59.0,60.0,0.5,1.5, SURF_ID='Mac-Body'/ 
&OBST ID='电缆桥架_01', XB=50.0,60.0,62.0,63.0,3.0,4.0, SURF_ID='PVC电缆绝缘'/ 
&OBST ID='二层办公桌_01', XB=5.0,7.0,7.2,8.2,3.733333,4.733333, SURF_ID='胶合板，面层'/ 
&OBST ID='二层办公椅木框_01', XB=7.0,8.0,8.4,9.4,3.733333,4.233333, SURF_ID='胶合板，面层'/ 
&OBST ID='二层办公椅织物坐垫_01', XB=7.0,8.0,8.4,9.4,4.233333,4.733333, SURF_ID='纺织品 - 蓝灰'/ 
&OBST ID='二层办公桌_02', XB=13.0,15.0,7.2,8.2,3.733333,4.733333, SURF_ID='胶合板，面层'/ 
&OBST ID='二层办公椅木框_02', XB=15.0,16.0,8.4,9.4,3.733333,4.233333, SURF_ID='胶合板，面层'/ 
&OBST ID='二层办公椅织物坐垫_02', XB=15.0,16.0,8.4,9.4,4.233333,4.733333, SURF_ID='纺织品 - 蓝灰'/ 
&OBST ID='二层办公桌_03', XB=23.2,25.2,53.2,54.2,3.733333,4.733333, SURF_ID='胶合板，面层'/ 
&OBST ID='二层办公桌_03', XB=23.2,25.2,7.2,8.2,3.733333,4.733333, SURF_ID='胶合板，面层'/ 
&OBST ID='二层办公桌_03', XB=13.2,15.2,53.2,54.2,3.733333,4.733333, SURF_ID='胶合板，面层'/ 
&OBST ID='二层办公桌_03', XB=53.2,55.2,53.2,54.2,3.733333,4.733333, SURF_ID='胶合板，面层'/ 
&OBST ID='二层办公椅木框_03', XB=25.2,26.2,8.4,9.4,3.733333,4.233333, SURF_ID='胶合板，面层'/ 
&OBST ID='二层办公椅织物坐垫_03', XB=25.2,26.2,8.4,9.4,4.233333,4.733333, SURF_ID='纺织品 - 蓝灰'/ 
&OBST ID='二层办公椅织物坐垫_03', XB=11.2,12.2,52.4,53.4,4.233333,4.733333, SURF_ID='纺织品 - 蓝灰'/ 
&OBST ID='二层办公椅织物坐垫_03', XB=25.2,26.2,52.4,53.4,4.233333,4.733333, SURF_ID='纺织品 - 蓝灰'/ 
&OBST ID='二层办公椅织物坐垫_03', XB=52.2,53.2,52.4,53.4,4.233333,4.733333, SURF_ID='纺织品 - 蓝灰'/ 
&OBST ID='二层办公椅织物坐垫_03', XB=46.2,47.2,52.4,53.4,4.233333,4.733333, SURF_ID='纺织品 - 蓝灰'/ 
&OBST ID='二层办公椅织物坐垫_03', XB=38.2,39.2,52.4,53.4,4.233333,4.733333, SURF_ID='纺织品 - 蓝灰'/ 
&OBST ID='二层办公椅织物坐垫_03', XB=40.2,41.2,52.4,53.4,4.233333,4.733333, SURF_ID='纺织品 - 蓝灰'/ 
&OBST ID='二层办公椅织物坐垫_03', XB=34.0,35.0,52.4,53.4,4.233333,4.733333, SURF_ID='纺织品 - 蓝灰'/ 
&OBST ID='二层办公椅织物坐垫_03', XB=32.0,33.0,52.4,53.4,4.233333,4.733333, SURF_ID='纺织品 - 蓝灰'/ 
&OBST ID='二层办公桌_04', XB=35.2,37.2,7.2,8.2,3.733333,4.733333, SURF_ID='胶合板，面层'/ 
&OBST ID='二层办公椅木框_04', XB=37.2,38.2,8.4,9.4,3.733333,4.233333, SURF_ID='胶合板，面层'/ 
&OBST ID='二层办公椅织物坐垫_04', XB=37.2,38.2,8.4,9.4,4.233333,4.733333, SURF_ID='纺织品 - 蓝灰'/ 
&OBST ID='二层办公桌_05', XB=52.0,54.0,7.2,8.2,3.733333,4.733333, SURF_ID='胶合板，面层'/ 
&OBST ID='二层办公椅木框_05', XB=54.0,55.0,8.4,9.4,3.733333,4.233333, SURF_ID='胶合板，面层'/ 
&OBST ID='二层办公椅织物坐垫_05', XB=54.0,55.0,8.4,9.4,4.233333,4.733333, SURF_ID='纺织品 - 蓝灰'/ 
&OBST ID='一层办公桌_01', XB=3.0,5.0,7.2,8.2,0.5,1.5, SURF_ID='胶合板，面层'/ 
&OBST ID='一层办公椅木框_01', XB=5.0,6.0,8.4,9.4,0.5,1.0, SURF_ID='胶合板，面层'/ 
&OBST ID='一层办公椅织物坐垫_01', XB=5.0,6.0,8.4,9.4,1.0,1.5, SURF_ID='纺织品 - 蓝灰'/ 
&OBST ID='一层办公桌_02', XB=23.5,25.5,7.2,8.2,0.5,1.5, SURF_ID='胶合板，面层'/ 
&OBST ID='一层办公椅木框_02', XB=25.5,26.5,8.4,9.4,0.5,1.0, SURF_ID='胶合板，面层'/ 
&OBST ID='一层办公椅织物坐垫_02', XB=25.5,26.5,8.4,9.4,1.0,1.5, SURF_ID='纺织品 - 蓝灰'/ 
&OBST ID='一层办公桌_03', XB=31.0,33.0,1.2,2.2,0.5,1.5, SURF_ID='胶合板，面层'/ 
&OBST ID='一层办公椅木框_03', XB=33.0,34.0,2.4,3.4,0.5,1.0, SURF_ID='胶合板，面层'/ 
&OBST ID='一层办公椅织物坐垫_03', XB=33.0,34.0,2.4,3.4,1.0,1.5, SURF_ID='纺织品 - 蓝灰'/ 

&VENT ID='油品泄漏池_01', SURF_ID='Oil_Product_Drum_Fire', XB=58.0,60.0,50.0,52.0,0.5,0.5, IOR=3/ 
&VENT ID='润滑剂泄漏池_01', SURF_ID='Lubricant_Drum_Fire', XB=58.0,60.0,47.0,48.0,0.5,0.5, IOR=3/ 
&VENT ID='IPA清洗剂泄漏池_01', SURF_ID='Cleaning_Agent_Drum_Fire', XB=55.0,56.0,48.0,49.0,0.5,0.5, IOR=3/ 
&VENT ID='清洗剂使用点_01', SURF_ID='Cleaning_Agent_Drum_Fire', XB=52.0,53.0,25.0,26.0,0.5,0.5, IOR=3/ 
&VENT ID='Mesh Vent: Mesh01 [XMAX]', SURF_ID='OPEN', XB=64.0,64.0,0.0,33.0,0.0,14.0/ 
&VENT ID='Mesh Vent: Mesh01 [XMIN]', SURF_ID='OPEN', XB=-1.0,-1.0,0.0,33.0,0.0,14.0/ 
&VENT ID='Mesh Vent: Mesh01 [YMIN]', SURF_ID='OPEN', XB=-1.0,64.0,0.0,0.0,0.0,14.0/ 
&VENT ID='Mesh Vent: Mesh01 [ZMAX]', SURF_ID='radiationz', XB=-1.0,64.0,0.0,33.0,14.0,14.0, DEVC_ID='TIMER->OUT->OUT'/ 
&VENT ID='Mesh Vent: Mesh01 [ZMIN]', SURF_ID='OPEN', XB=-1.0,64.0,0.0,33.0,0.0,0.0/ 
&VENT ID='Mesh Vent: Mesh02 [XMAX]', SURF_ID='OPEN', XB=64.0,64.0,33.0,66.0,0.0,14.0/ 
&VENT ID='Mesh Vent: Mesh02 [XMIN]', SURF_ID='OPEN', XB=-1.0,-1.0,33.0,66.0,0.0,14.0/ 
&VENT ID='Mesh Vent: Mesh02 [YMAX]', SURF_ID='RADIATION', XB=-1.0,64.0,66.0,66.0,0.0,14.0, DEVC_ID='TIMER->OUT->OUT'/ 
&VENT ID='Mesh Vent: Mesh02 [ZMAX]', SURF_ID='radiationz', XB=-1.0,64.0,33.0,66.0,14.0,14.0, DEVC_ID='TIMER->OUT->OUT'/ 
&VENT ID='Mesh Vent: Mesh02 [ZMIN]', SURF_ID='OPEN', XB=-1.0,64.0,33.0,66.0,0.0,0.0/ 

&SLCF QUANTITY='HRRPUV', PBZ=2.0/
&SLCF QUANTITY='RADIATION LOSS', PBZ=2.0/
&SLCF QUANTITY='TEMPERATURE', PBZ=2.0/
&SLCF QUANTITY='TEMPERATURE', PBZ=5.0/
&SLCF QUANTITY='RADIATION LOSS', PBZ=5.0/
&SLCF QUANTITY='HRRPUV', PBZ=5.0/


&TAIL /