SLC_q1000_a0_e0_d1360_t1800.fds
Generated by PyroSim - Version 2020.5.1118
2026-7-8 14:12:31

&HEAD CHID='SLC_q1000_a0_e0_d1360_t1800'/
&TIME T_END=1800.0/
&DUMP DT_RESTART=300.0, DT_SL3D=1.0/
&CLIP MINIMUM_TEMPERATURE=20.0, MAXIMUM_TEMPERATURE=8000.0/

&MESH ID='Mesh01', IJK=31,26,40, XB=1.0,63.0,2.0,54.0,0.0,80.0/
&MESH ID='Mesh02', IJK=15,14,80, XB=48.0,63.0,34.0,48.0,0.0,80.0/
&MESH ID='Mesh03', IJK=40,19,58, XB=8.0,48.0,28.0,47.0,18.0,76.0/
&MESH ID='Mesh04', IJK=47,52,18, XB=1.0,48.0,2.0,54.0,0.0,18.0/


&REAC ID='METHANE',
      FYI='AFT NIST Multi-Floor FDS5 Validation',
      FUEL='METHANE',
      H=4.0,
      C=1.0/

&DEVC ID='TEMP_huojianjiekou01', QUANTITY='TEMPERATURE', XYZ=31.75,40.0,59.0/
&DEVC ID='RHFG_huojianjiekou01', QUANTITY='RADIATIVE HEAT FLUX GAS', XYZ=31.75,40.0,59.0, ORIENTATION=1.0,0.0,0.0/
&DEVC ID='TEMP_huojianjiekou02', QUANTITY='TEMPERATURE', XYZ=31.75,42.5,59.0/
&DEVC ID='RHFG_huojianjiekou02', QUANTITY='RADIATIVE HEAT FLUX GAS', XYZ=31.75,42.5,59.0, ORIENTATION=1.0,0.0,0.0/
&DEVC ID='TEMP_fashetaiduanluoludianlan01', QUANTITY='TEMPERATURE', XYZ=49.5,39.75,58.0/
&DEVC ID='RHFG_fashetaiduanluoludianlan01', QUANTITY='RADIATIVE HEAT FLUX GAS', XYZ=49.5,39.75,58.0, ORIENTATION=1.0,0.0,0.0/
&DEVC ID='TEMP_huojianduanluoludianlan02', QUANTITY='TEMPERATURE', XYZ=34.0,39.75,58.0/
&DEVC ID='RHFG_huojianduanluoludianlan02', QUANTITY='RADIATIVE HEAT FLUX GAS', XYZ=34.0,39.75,58.0, ORIENTATION=1.0,0.0,0.0/
&DEVC ID='TEMP_fashetaiduanruanguan01', QUANTITY='TEMPERATURE', XYZ=49.5,42.25,59.0/
&DEVC ID='RHFG_fashetaiduanruanguan01', QUANTITY='RADIATIVE HEAT FLUX GAS', XYZ=49.5,42.25,59.0, ORIENTATION=1.0,0.0,0.0/
&DEVC ID='TEMP_huojianduanruanguan02', QUANTITY='TEMPERATURE', XYZ=34.0,42.25,59.0/
&DEVC ID='RHFG_huojianduanruanguan02', QUANTITY='RADIATIVE HEAT FLUX GAS', XYZ=34.0,42.25,59.0, ORIENTATION=1.0,0.0,0.0/
&DEVC ID='TEMP_diwenbaowenguan01', QUANTITY='TEMPERATURE', XYZ=39.0,41.75,60.0/
&DEVC ID='RHFG_diwenbaowenguan01', QUANTITY='RADIATIVE HEAT FLUX GAS', XYZ=39.0,41.75,60.0, ORIENTATION=1.0,0.0,0.0/
&DEVC ID='TEMP_diwenbaowenguan02', QUANTITY='TEMPERATURE', XYZ=45.0,41.75,60.0/
&DEVC ID='RHFG_diwenbaowenguan02', QUANTITY='RADIATIVE HEAT FLUX GAS', XYZ=45.0,41.75,60.0, ORIENTATION=1.0,0.0,0.0/
&DEVC ID='TEMP_xiacengkongzhixiang01', QUANTITY='TEMPERATURE', XYZ=11.5,22.25,13.5/
&DEVC ID='RHFG_xiacengkongzhixiang01', QUANTITY='RADIATIVE HEAT FLUX GAS', XYZ=11.5,22.25,13.5, ORIENTATION=1.0,0.0,0.0/
&DEVC ID='TEMP_xiacengkongzhixiang02', QUANTITY='TEMPERATURE', XYZ=30.5,22.25,13.5/
&DEVC ID='RHFG_xiacengkongzhixiang02', QUANTITY='RADIATIVE HEAT FLUX GAS', XYZ=30.5,22.25,13.5, ORIENTATION=1.0,0.0,0.0/
&DEVC ID='TEMP_xiacengkongzhixiang03', QUANTITY='TEMPERATURE', XYZ=36.5,44.25,13.5/
&DEVC ID='RHFG_xiacengkongzhixiang03', QUANTITY='RADIATIVE HEAT FLUX GAS', XYZ=36.5,44.25,13.5, ORIENTATION=1.0,0.0,0.0/
&DEVC ID='TEMP_xiacengkongzhixiang04', QUANTITY='TEMPERATURE', XYZ=13.5,22.25,13.5/
&DEVC ID='RHFG_xiacengkongzhixiang04', QUANTITY='RADIATIVE HEAT FLUX GAS', XYZ=13.5,22.25,13.5, ORIENTATION=1.0,0.0,0.0/
&DEVC ID='TEMP_xiacengdianlanjiekou01', QUANTITY='TEMPERATURE', XYZ=12.5,24.75,13.0/
&DEVC ID='RHFG_xiacengdianlanjiekou01', QUANTITY='RADIATIVE HEAT FLUX GAS', XYZ=12.5,24.75,13.0, ORIENTATION=1.0,0.0,0.0/
&DEVC ID='TEMP_xiacengdianlanjiekou02', QUANTITY='TEMPERATURE', XYZ=34.0,42.25,13.0/
&DEVC ID='RHFG_xiacengdianlanjiekou02', QUANTITY='RADIATIVE HEAT FLUX GAS', XYZ=34.0,42.25,13.0, ORIENTATION=1.0,0.0,0.0/
&DEVC ID='TEMP_xiacengruanguanjiekou01', QUANTITY='TEMPERATURE', XYZ=31.5,11.25,13.0/
&DEVC ID='RHFG_xiacengruanguanjiekou01', QUANTITY='RADIATIVE HEAT FLUX GAS', XYZ=31.5,11.25,13.0, ORIENTATION=1.0,0.0,0.0/
&DEVC ID='TEMP_xiacengruanguanjiekou02', QUANTITY='TEMPERATURE', XYZ=38.0,12.25,13.0/
&DEVC ID='RHFG_xiacengruanguanjiekou02', QUANTITY='RADIATIVE HEAT FLUX GAS', XYZ=38.0,12.25,13.0, ORIENTATION=1.0,0.0,0.0/
&DEVC ID='TEMP_shangcengkongzhixiang01', QUANTITY='TEMPERATURE', XYZ=11.5,23.25,17.5/
&DEVC ID='RHFG_shangcengkongzhixiang01', QUANTITY='RADIATIVE HEAT FLUX GAS', XYZ=11.5,23.25,17.5, ORIENTATION=1.0,0.0,0.0/
&DEVC ID='TEMP_shangcengkongzhixiang02', QUANTITY='TEMPERATURE', XYZ=38.5,42.25,17.5/
&DEVC ID='RHFG_shangcengkongzhixiang02', QUANTITY='RADIATIVE HEAT FLUX GAS', XYZ=38.5,42.25,17.5, ORIENTATION=1.0,0.0,0.0/
&DEVC ID='TEMP_shangcengruanguanjiekou01', QUANTITY='TEMPERATURE', XYZ=30.5,38.25,16.5/
&DEVC ID='RHFG_shangcengruanguanjiekou01', QUANTITY='RADIATIVE HEAT FLUX GAS', XYZ=30.5,38.25,16.5, ORIENTATION=1.0,0.0,0.0/
&DEVC ID='TEMP_shangcengruanguanjiekou02', QUANTITY='TEMPERATURE', XYZ=38.5,42.75,16.5/
&DEVC ID='RHFG_shangcengruanguanjiekou02', QUANTITY='RADIATIVE HEAT FLUX GAS', XYZ=38.5,42.75,16.5, ORIENTATION=1.0,0.0,0.0/
&DEVC ID='TEMP_shangcengbaowenguan01', QUANTITY='TEMPERATURE', XYZ=23.0,38.75,17.0/
&DEVC ID='RHFG_shangcengbaowenguan01', QUANTITY='RADIATIVE HEAT FLUX GAS', XYZ=23.0,38.75,17.0, ORIENTATION=1.0,0.0,0.0/
&DEVC ID='TEMP_fasheta06mkongzhixiang', QUANTITY='TEMPERATURE', XYZ=60.0,43.75,8.0/
&DEVC ID='RHFG_fasheta06mkongzhixiang', QUANTITY='RADIATIVE HEAT FLUX GAS', XYZ=60.0,43.75,8.0, ORIENTATION=1.0,0.0,0.0/
&DEVC ID='TEMP_fasheta22mkongzhixiang', QUANTITY='TEMPERATURE', XYZ=60.0,43.75,24.0/
&DEVC ID='RHFG_fasheta22mkongzhixiang', QUANTITY='RADIATIVE HEAT FLUX GAS', XYZ=60.0,43.75,24.0, ORIENTATION=1.0,0.0,0.0/
&DEVC ID='TEMP_fasheta38mkongzhixiang', QUANTITY='TEMPERATURE', XYZ=60.0,43.75,40.0/
&DEVC ID='RHFG_fasheta38mkongzhixiang', QUANTITY='RADIATIVE HEAT FLUX GAS', XYZ=60.0,43.75,40.0, ORIENTATION=1.0,0.0,0.0/
&DEVC ID='TEMP_fasheta54mkongzhixiang', QUANTITY='TEMPERATURE', XYZ=60.0,43.75,56.0/
&DEVC ID='RHFG_fasheta54mkongzhixiang', QUANTITY='RADIATIVE HEAT FLUX GAS', XYZ=60.0,43.75,56.0, ORIENTATION=1.0,0.0,0.0/
&DEVC ID='TEMP_fasheta06mdianlanjiekou', QUANTITY='TEMPERATURE', XYZ=54.0,42.25,7.5/
&DEVC ID='RHFG_fasheta06mdianlanjiekou', QUANTITY='RADIATIVE HEAT FLUX GAS', XYZ=54.0,42.25,7.5, ORIENTATION=1.0,0.0,0.0/
&DEVC ID='TEMP_fasheta22mdianlanjiekou', QUANTITY='TEMPERATURE', XYZ=54.0,42.25,23.5/
&DEVC ID='RHFG_fasheta22mdianlanjiekou', QUANTITY='RADIATIVE HEAT FLUX GAS', XYZ=54.0,42.25,23.5, ORIENTATION=1.0,0.0,0.0/
&DEVC ID='TEMP_fasheta38mdianlanjiekou', QUANTITY='TEMPERATURE', XYZ=54.0,42.25,39.5/
&DEVC ID='RHFG_fasheta38mdianlanjiekou', QUANTITY='RADIATIVE HEAT FLUX GAS', XYZ=54.0,42.25,39.5, ORIENTATION=1.0,0.0,0.0/
&DEVC ID='TEMP_fasheta54mdianlanjiekou', QUANTITY='TEMPERATURE', XYZ=54.0,42.25,55.5/
&DEVC ID='RHFG_fasheta54mdianlanjiekou', QUANTITY='RADIATIVE HEAT FLUX GAS', XYZ=54.0,42.25,55.5, ORIENTATION=1.0,0.0,0.0/
&DEVC ID='TEMP_fadongjicangdianlanjiekou02', QUANTITY='TEMPERATURE', XYZ=28.5,37.75,20.0/
&DEVC ID='RHFG_fadongjicangdianlanjiekou02', QUANTITY='RADIATIVE HEAT FLUX GAS', XYZ=28.5,37.75,20.0, ORIENTATION=1.0,0.0,0.0/
&DEVC ID='TEMP_fadongjicangruanguanjiekou01', QUANTITY='TEMPERATURE', XYZ=27.0,38.25,20.0/
&DEVC ID='RHFG_fadongjicangruanguanjiekou01', QUANTITY='RADIATIVE HEAT FLUX GAS', XYZ=27.0,38.25,20.0, ORIENTATION=1.0,0.0,0.0/
&DEVC ID='TEMP_fadongjicangruanguanjiekou02', QUANTITY='TEMPERATURE', XYZ=21.0,39.25,20.0/
&DEVC ID='RHFG_fadongjicangruanguanjiekou02', QUANTITY='RADIATIVE HEAT FLUX GAS', XYZ=21.0,39.25,20.0, ORIENTATION=1.0,0.0,0.0/
&DEVC ID='TEMP_huojianzhengti', QUANTITY='TEMPERATURE', XYZ=23.5,42.75,68.0/
&DEVC ID='RHFG_huojianzhengti', QUANTITY='RADIATIVE HEAT FLUX GAS', XYZ=23.5,42.75,68.0, ORIENTATION=1.0,0.0,0.0/
&DEVC ID='ymax', QUANTITY='RADIATIVE HEAT FLUX GAS', XYZ=40.0,52.5,18.0, ORIENTATION=0.0,1.0,0.0/
&DEVC ID='xmax', QUANTITY='RADIATIVE HEAT FLUX GAS', XYZ=62.0,38.0,25.0, ORIENTATION=1.0,0.0,0.0/
&DEVC ID='ymin', QUANTITY='RADIATIVE HEAT FLUX GAS', XYZ=20.0,2.0,18.0, ORIENTATION=0.0,-1.0,0.0/
&DEVC ID='xmin', QUANTITY='RADIATIVE HEAT FLUX GAS', XYZ=2.0,20.0,18.0, ORIENTATION=-1.0,0.0,0.0/
&DEVC ID='TIMER->OUT->OUT', QUANTITY='TIME', XYZ=1.0,2.0,0.0, SETPOINT=1.36, INITIAL_STATE=.TRUE./

&MATL ID='STEEL',
      SPECIFIC_HEAT=0.46,
      CONDUCTIVITY=45.8,
      DENSITY=7850.0/
&MATL ID='岩棉隔热材料',
      SPECIFIC_HEAT=0.85,
      CONDUCTIVITY=0.04,
      DENSITY=80.0/
&MATL ID='玻璃',
      SPECIFIC_HEAT=0.75,
      CONDUCTIVITY=1.0,
      DENSITY=2500.0/
&MATL ID='防火涂层',
      SPECIFIC_HEAT=1.0,
      CONDUCTIVITY=0.2,
      DENSITY=1200.0,
      EMISSIVITY=0.95/
&MATL ID='铝合金',
      SPECIFIC_HEAT=0.84,
      CONDUCTIVITY=167.0,
      DENSITY=2700.0,
      EMISSIVITY=0.8/
&MATL ID='PVC电缆绝缘',
      SPECIFIC_HEAT=1.289,
      CONDUCTIVITY=0.192,
      DENSITY=1380.0/
&MATL ID='三元乙丙橡胶EPDM',
      SPECIFIC_HEAT=1.403,
      CONDUCTIVITY=0.133,
      DENSITY=1200.0/
&MATL ID='聚氨酯泡沫保温材料',
      SPECIFIC_HEAT=1.5,
      CONDUCTIVITY=0.038,
      DENSITY=31.7/
&MATL ID='电子设备塑料ABS',
      SPECIFIC_HEAT=1.96,
      CONDUCTIVITY=0.218,
      DENSITY=1060.0/

&SURF ID='IfcBuildingElementProxy',
      RGB=242,240,189,
      BACKING='VOID',
      MATL_ID(1,1)='STEEL',
      MATL_MASS_FRACTION(1,1)=1.0,
      THICKNESS(1)=0.01/
&SURF ID='黄色钢管',
      RGB=0,200,200,
      TRANSPARENCY=0.501961,
      BACKING='VOID',
      MATL_ID(1,1)='STEEL',
      MATL_MASS_FRACTION(1,1)=1.0,
      THICKNESS(1)=8.0E-3/
&SURF ID='门 - 嵌板',
      RGB=210,159,95,
      BACKING='VOID',
      MATL_ID(1,1)='STEEL',
      MATL_ID(2,1)='岩棉隔热材料',
      MATL_ID(3,1)='STEEL',
      MATL_MASS_FRACTION(1,1)=1.0,
      MATL_MASS_FRACTION(2,1)=1.0,
      MATL_MASS_FRACTION(3,1)=1.0,
      THICKNESS(1:3)=1.5E-3,0.04,1.5E-3/
&SURF ID='门 - 框架',
      RGB=118,70,51,
      BACKING='VOID',
      MATL_ID(1,1)='STEEL',
      MATL_ID(2,1)='岩棉隔热材料',
      MATL_ID(3,1)='STEEL',
      MATL_MASS_FRACTION(1,1)=1.0,
      MATL_MASS_FRACTION(2,1)=1.0,
      MATL_MASS_FRACTION(3,1)=1.0,
      THICKNESS(1:3)=1.5E-3,0.04,1.5E-3/
&SURF ID='IfcDoor',
      RGB=247,48,0,
      BACKING='VOID',
      MATL_ID(1,1)='STEEL',
      MATL_MASS_FRACTION(1,1)=1.0,
      THICKNESS(1)=3.0E-3/
&SURF ID='IfcRailing',
      RGB=242,240,189,
      BACKING='VOID',
      MATL_ID(1,1)='STEEL',
      MATL_MASS_FRACTION(1,1)=1.0,
      THICKNESS(1)=3.0E-3/
&SURF ID='默认楼板',
      COLOR='GRAY 50',
      BACKING='VOID',
      MATL_ID(1,1)='STEEL',
      MATL_MASS_FRACTION(1,1)=1.0,
      THICKNESS(1)=5.0E-3/
&SURF ID='墙',
      RGB=121,121,121,
      BACKING='VOID',
      MATL_ID(1,1)='STEEL',
      MATL_MASS_FRACTION(1,1)=1.0,
      THICKNESS(1)=3.0E-3/
&SURF ID='玻璃',
      RGB=0,128,192,
      TRANSPARENCY=0.101961,
      BACKING='VOID',
      MATL_ID(1,1)='玻璃',
      MATL_MASS_FRACTION(1,1)=1.0,
      THICKNESS(1)=0.01/
&SURF ID='默认楼板01',
      COLOR='GRAY 50',
      BACKING='VOID',
      MATL_ID(1,1)='STEEL',
      MATL_MASS_FRACTION(1,1)=1.0,
      THICKNESS(1)=5.0E-3/
&SURF ID='火箭表面涂层',
      RGB=146,202,166,
      BACKING='VOID',
      MATL_ID(1,1)='防火涂层',
      MATL_ID(2,1)='铝合金',
      MATL_MASS_FRACTION(1,1)=1.0,
      MATL_MASS_FRACTION(2,1)=1.0,
      THICKNESS(1:2)=2.0E-3,5.0E-3/
&SURF ID='脐带综合接口表面',
      RGB=70,70,70,
      HRRPUA=250.0,
      RAMP_Q='脐带综合接口表面_RAMP_Q',
      IGNITION_TEMPERATURE=325.0,
      BACKING='INSULATED',
      MATL_ID(1,1)='PVC电缆绝缘',
      MATL_MASS_FRACTION(1,1)=1.0,
      THICKNESS(1)=5.0E-3/
&RAMP ID='脐带综合接口表面_RAMP_Q', T=0.0, F=0.0/
&RAMP ID='脐带综合接口表面_RAMP_Q', T=1.0, F=1.0/
&RAMP ID='脐带综合接口表面_RAMP_Q', T=577.0, F=1.0/
&RAMP ID='脐带综合接口表面_RAMP_Q', T=578.0, F=0.0/
&SURF ID='裸露电缆接口表面',
      RGB=30,30,30,
      HRRPUA=250.0,
      RAMP_Q='裸露电缆接口表面_RAMP_Q',
      IGNITION_TEMPERATURE=325.0,
      BACKING='INSULATED',
      MATL_ID(1,1)='PVC电缆绝缘',
      MATL_MASS_FRACTION(1,1)=1.0,
      THICKNESS(1)=5.0E-3/
&RAMP ID='裸露电缆接口表面_RAMP_Q', T=0.0, F=0.0/
&RAMP ID='裸露电缆接口表面_RAMP_Q', T=1.0, F=1.0/
&RAMP ID='裸露电缆接口表面_RAMP_Q', T=577.0, F=1.0/
&RAMP ID='裸露电缆接口表面_RAMP_Q', T=578.0, F=0.0/
&SURF ID='裸露软管表面',
      COLOR='GRAY 8',
      HRRPUA=600.0,
      RAMP_Q='裸露软管表面_RAMP_Q',
      IGNITION_TEMPERATURE=213.0,
      BACKING='INSULATED',
      MATL_ID(1,1)='三元乙丙橡胶EPDM',
      MATL_MASS_FRACTION(1,1)=1.0,
      THICKNESS(1)=5.0E-3/
&RAMP ID='裸露软管表面_RAMP_Q', T=0.0, F=0.0/
&RAMP ID='裸露软管表面_RAMP_Q', T=1.0, F=1.0/
&RAMP ID='裸露软管表面_RAMP_Q', T=340.0, F=1.0/
&RAMP ID='裸露软管表面_RAMP_Q', T=341.0, F=0.0/
&SURF ID='低温保温弱可燃表面',
      RGB=255,220,120,
      HRRPUA=1000.0,
      RAMP_Q='低温保温弱可燃表面_RAMP_Q',
      IGNITION_TEMPERATURE=252.0,
      BACKING='INSULATED',
      MATL_ID(1,1)='聚氨酯泡沫保温材料',
      MATL_MASS_FRACTION(1,1)=1.0,
      THICKNESS(1)=0.05/
&RAMP ID='低温保温弱可燃表面_RAMP_Q', T=0.0, F=0.0/
&RAMP ID='低温保温弱可燃表面_RAMP_Q', T=1.0, F=1.0/
&RAMP ID='低温保温弱可燃表面_RAMP_Q', T=40.0, F=1.0/
&RAMP ID='低温保温弱可燃表面_RAMP_Q', T=41.0, F=0.0/
&SURF ID='控制柜弱可燃表面',
      RGB=150,80,60,
      HRRPUA=1500.0,
      RAMP_Q='控制柜弱可燃表面_RAMP_Q',
      IGNITION_TEMPERATURE=363.0,
      BACKING='INSULATED',
      MATL_ID(1,1)='电子设备塑料ABS',
      MATL_MASS_FRACTION(1,1)=1.0,
      THICKNESS(1)=5.0E-3/
&RAMP ID='控制柜弱可燃表面_RAMP_Q', T=0.0, F=0.0/
&RAMP ID='控制柜弱可燃表面_RAMP_Q', T=1.0, F=1.0/
&RAMP ID='控制柜弱可燃表面_RAMP_Q', T=130.0, F=1.0/
&RAMP ID='控制柜弱可燃表面_RAMP_Q', T=131.0, F=0.0/
&SURF ID='钢制桥架表面',
      COLOR='GRAY 47',
      BACKING='VOID',
      MATL_ID(1,1)='STEEL',
      MATL_MASS_FRACTION(1,1)=1.0,
      THICKNESS(1)=2.0E-3/
&SURF ID='RADIATION',
      COLOR='RED',
      NET_HEAT_FLUX=1000.0,
      EMISSIVITY=1.0/
&SURF ID='radiationz',
      COLOR='RED',
      NET_HEAT_FLUX=0.0,
      EMISSIVITY=1.0/

&OBST ID='常规模型 3:常规模型 3:355784', XB=40.5,41.5,47.0,47.5,0.5,1.5, RGB=242,240,189, SURF_ID='IfcBuildingElementProxy'/ 
&OBST ID='常规模型 3:常规模型 3:355784', XB=40.5,41.5,47.0,47.5,7.0,7.5, RGB=242,240,189, SURF_ID='IfcBuildingElementProxy'/ 
&OBST ID='常规模型 3:常规模型 3:355784', XB=40.5,42.0,46.5,47.0,0.5,1.5, RGB=242,240,189, SURF_ID='IfcBuildingElementProxy'/ 
&OBST ID='常规模型 3:常规模型 3:355784', XB=40.5,42.0,46.5,47.0,7.0,7.5, RGB=242,240,189, SURF_ID='IfcBuildingElementProxy'/ 
&OBST ID='常规模型 3:常规模型 3:355784', XB=40.5,42.0,47.5,48.0,7.0,7.5, RGB=242,240,189, SURF_ID='IfcBuildingElementProxy'/ 
&OBST ID='常规模型 3:常规模型 3:355784', XB=40.5,42.5,46.0,46.5,7.0,7.5, RGB=242,240,189, SURF_ID='IfcBuildingElementProxy'/ 
&OBST ID='常规模型 3:常规模型 3:355784', XB=40.5,45.0,45.0,46.0,7.0,7.5, RGB=242,240,189, SURF_ID='IfcBuildingElementProxy'/ 
&OBST ID='常规模型 3:常规模型 3:355784', XB=40.5,45.0,48.0,49.5,7.0,7.5, RGB=242,240,189, SURF_ID='IfcBuildingElementProxy'/ 
&OBST ID='常规模型 3:常规模型 3:355784', XB=41.0,42.0,47.5,48.0,0.5,1.5, RGB=242,240,189, SURF_ID='IfcBuildingElementProxy'/ 
&OBST ID='常规模型 3:常规模型 3:355784', XB=41.0,42.5,46.0,46.5,0.5,1.5, RGB=242,240,189, SURF_ID='IfcBuildingElementProxy'/ 
&OBST ID='常规模型 3:常规模型 3:355784', XB=41.0,44.5,48.0,48.5,0.5,1.5, RGB=242,240,189, SURF_ID='IfcBuildingElementProxy'/ 
&OBST ID='常规模型 3:常规模型 3:355784', XB=41.5,43.5,47.0,47.5,0.5,7.0, RGB=242,240,189, SURF_ID='IfcBuildingElementProxy'/ 
&OBST ID='常规模型 3:常规模型 3:355784', XB=41.5,43.5,47.0,47.5,7.5,10.5, RGB=242,240,189, SURF_ID='IfcBuildingElementProxy'/ 
&OBST ID='常规模型 3:常规模型 3:355784', XB=41.5,44.0,45.5,46.0,0.5,1.5, RGB=242,240,189, SURF_ID='IfcBuildingElementProxy'/ 
&OBST ID='常规模型 3:常规模型 3:355784', XB=41.5,44.0,48.5,49.0,0.5,1.5, RGB=242,240,189, SURF_ID='IfcBuildingElementProxy'/ 
&OBST ID='常规模型 3:常规模型 3:355784', XB=42.0,43.5,46.5,47.0,0.5,7.0, RGB=242,240,189, SURF_ID='IfcBuildingElementProxy'/ 
&OBST ID='常规模型 3:常规模型 3:355784', XB=42.0,43.5,47.5,48.0,0.5,7.0, RGB=242,240,189, SURF_ID='IfcBuildingElementProxy'/ 
&OBST ID='常规模型 3:常规模型 3:355784', XB=42.0,43.5,46.5,47.0,7.5,10.5, RGB=242,240,189, SURF_ID='IfcBuildingElementProxy'/ 
&OBST ID='常规模型 3:常规模型 3:355784', XB=42.0,43.5,47.5,48.0,7.5,10.5, RGB=242,240,189, SURF_ID='IfcBuildingElementProxy'/ 
&OBST ID='常规模型 3:常规模型 3:355784', XB=42.5,43.0,45.0,45.5,0.5,1.5, RGB=242,240,189, SURF_ID='IfcBuildingElementProxy'/ 
! ... 112 like lines cut
&OBST ID='脚手架:脚手架:608250', XB=50.5,62.0,46.0,46.5,1.5,2.0, RGB=0,200,200, TRANSPARENCY=0.501961, SURF_ID='黄色钢管'/ 
&OBST ID='脚手架:脚手架:608250', XB=50.5,62.0,47.0,47.5,1.5,2.0, RGB=0,200,200, TRANSPARENCY=0.501961, SURF_ID='黄色钢管'/ 
&OBST ID='脚手架:脚手架:608250', XB=50.5,62.0,46.0,46.5,10.5,11.0, RGB=0,200,200, TRANSPARENCY=0.501961, SURF_ID='黄色钢管'/ 
&OBST ID='脚手架:脚手架:608250', XB=50.5,62.0,47.0,47.5,10.5,11.0, RGB=0,200,200, TRANSPARENCY=0.501961, SURF_ID='黄色钢管'/ 
&OBST ID='脚手架:脚手架:608251', XB=61.0,61.5,35.5,47.0,1.5,2.0, RGB=0,200,200, TRANSPARENCY=0.501961, SURF_ID='黄色钢管'/ 
&OBST ID='脚手架:脚手架:608251', XB=61.0,61.5,35.5,47.0,10.5,11.0, RGB=0,200,200, TRANSPARENCY=0.501961, SURF_ID='黄色钢管'/ 
&OBST ID='脚手架:脚手架:608251', XB=62.0,62.5,35.5,47.0,1.5,2.0, RGB=0,200,200, TRANSPARENCY=0.501961, SURF_ID='黄色钢管'/ 
&OBST ID='脚手架:脚手架:608251', XB=62.0,62.5,35.5,47.0,10.5,11.0, RGB=0,200,200, TRANSPARENCY=0.501961, SURF_ID='黄色钢管'/ 
&OBST ID='脚手架:脚手架:608252', XB=50.5,62.0,35.5,36.0,1.5,2.0, RGB=0,200,200, TRANSPARENCY=0.501961, SURF_ID='黄色钢管'/ 
&OBST ID='脚手架:脚手架:608252', XB=50.5,62.0,36.5,37.0,1.5,2.0, RGB=0,200,200, TRANSPARENCY=0.501961, SURF_ID='黄色钢管'/ 
&OBST ID='脚手架:脚手架:608252', XB=50.5,62.0,35.5,36.0,10.5,11.0, RGB=0,200,200, TRANSPARENCY=0.501961, SURF_ID='黄色钢管'/ 
&OBST ID='脚手架:脚手架:608252', XB=50.5,62.0,36.5,37.0,10.5,11.0, RGB=0,200,200, TRANSPARENCY=0.501961, SURF_ID='黄色钢管'/ 
&OBST ID='脚手架:脚手架:608253', XB=51.5,52.0,35.5,36.0,0.0,13.0, RGB=0,200,200, TRANSPARENCY=0.501961, SURF_ID='黄色钢管'/ 
&OBST ID='脚手架:脚手架:608253', XB=51.5,52.0,37.0,37.5,0.0,13.0, RGB=0,200,200, TRANSPARENCY=0.501961, SURF_ID='黄色钢管'/ 
&OBST ID='脚手架:脚手架:608253', XB=51.5,52.0,38.5,39.0,0.0,13.0, RGB=0,200,200, TRANSPARENCY=0.501961, SURF_ID='黄色钢管'/ 
&OBST ID='脚手架:脚手架:608253', XB=51.5,52.0,40.0,40.5,0.0,13.0, RGB=0,200,200, TRANSPARENCY=0.501961, SURF_ID='黄色钢管'/ 
&OBST ID='脚手架:脚手架:608253', XB=51.5,52.0,41.5,42.0,0.0,13.0, RGB=0,200,200, TRANSPARENCY=0.501961, SURF_ID='黄色钢管'/ 
&OBST ID='脚手架:脚手架:608253', XB=51.5,52.0,43.0,43.5,0.0,13.0, RGB=0,200,200, TRANSPARENCY=0.501961, SURF_ID='黄色钢管'/ 
&OBST ID='脚手架:脚手架:608253', XB=51.5,52.0,44.5,45.0,0.0,13.0, RGB=0,200,200, TRANSPARENCY=0.501961, SURF_ID='黄色钢管'/ 
&OBST ID='脚手架:脚手架:608253', XB=51.5,52.0,46.0,46.5,0.0,13.0, RGB=0,200,200, TRANSPARENCY=0.501961, SURF_ID='黄色钢管'/ 
! ... 4 like lines cut
&OBST ID='常规模型 12:常规模型 12:608598', XB=50.5,54.0,39.0,43.5,5.0,5.5, RGB=242,240,189, SURF_ID='IfcBuildingElementProxy'/ 
&OBST ID='常规模型 12:常规模型 12:608598', XB=50.5,54.0,39.0,43.5,14.5,15.0, RGB=242,240,189, SURF_ID='IfcBuildingElementProxy'/ 
&OBST ID='常规模型 12:常规模型 12:608598', XB=50.5,54.0,39.0,43.5,24.0,24.5, RGB=242,240,189, SURF_ID='IfcBuildingElementProxy'/ 
&OBST ID='常规模型 12:常规模型 12:608598', XB=50.5,54.0,39.0,43.5,29.0,29.5, RGB=242,240,189, SURF_ID='IfcBuildingElementProxy'/ 
&OBST ID='常规模型 12:常规模型 12:608598', XB=50.5,54.0,39.0,43.5,38.5,39.0, RGB=242,240,189, SURF_ID='IfcBuildingElementProxy'/ 
&OBST ID='常规模型 12:常规模型 12:608598', XB=50.5,54.0,39.0,43.5,48.0,48.5, RGB=242,240,189, SURF_ID='IfcBuildingElementProxy'/ 
&OBST ID='常规模型 12:常规模型 12:608598', XB=50.5,54.0,39.0,43.5,53.0,53.5, RGB=242,240,189, SURF_ID='IfcBuildingElementProxy'/ 
&OBST ID='常规模型 12:常规模型 12:608598', XB=50.5,54.0,39.0,43.5,62.5,63.0, RGB=242,240,189, SURF_ID='IfcBuildingElementProxy'/ 
&OBST ID='常规模型 12:常规模型 12:608598', XB=50.5,54.0,39.0,43.5,72.0,72.5, RGB=242,240,189, SURF_ID='IfcBuildingElementProxy'/ 
&OBST ID='常规模型 12:常规模型 12:608598', XB=50.5,54.0,39.0,43.5,77.0,77.5, RGB=242,240,189, SURF_ID='IfcBuildingElementProxy'/ 
&OBST ID='常规模型 12:常规模型 12:608598', XB=50.5,62.0,35.5,39.0,5.0,5.5, RGB=242,240,189, SURF_ID='IfcBuildingElementProxy'/ 
&OBST ID='常规模型 12:常规模型 12:608598', XB=50.5,62.0,43.5,47.5,5.0,5.5, RGB=242,240,189, SURF_ID='IfcBuildingElementProxy'/ 
&OBST ID='常规模型 12:常规模型 12:608598', XB=50.5,62.0,35.5,39.0,14.5,15.0, RGB=242,240,189, SURF_ID='IfcBuildingElementProxy'/ 
&OBST ID='常规模型 12:常规模型 12:608598', XB=50.5,62.0,43.5,47.5,14.5,15.0, RGB=242,240,189, SURF_ID='IfcBuildingElementProxy'/ 
&OBST ID='常规模型 12:常规模型 12:608598', XB=50.5,62.0,35.5,39.0,24.0,24.5, RGB=242,240,189, SURF_ID='IfcBuildingElementProxy'/ 
&OBST ID='常规模型 12:常规模型 12:608598', XB=50.5,62.0,43.5,47.5,24.0,24.5, RGB=242,240,189, SURF_ID='IfcBuildingElementProxy'/ 
&OBST ID='常规模型 12:常规模型 12:608598', XB=50.5,62.0,35.5,39.0,29.0,29.5, RGB=242,240,189, SURF_ID='IfcBuildingElementProxy'/ 
&OBST ID='常规模型 12:常规模型 12:608598', XB=50.5,62.0,43.5,47.5,29.0,29.5, RGB=242,240,189, SURF_ID='IfcBuildingElementProxy'/ 
&OBST ID='常规模型 12:常规模型 12:608598', XB=50.5,62.0,35.5,39.0,38.5,39.0, RGB=242,240,189, SURF_ID='IfcBuildingElementProxy'/ 
&OBST ID='常规模型 12:常规模型 12:608598', XB=50.5,62.0,43.5,47.5,38.5,39.0, RGB=242,240,189, SURF_ID='IfcBuildingElementProxy'/ 
! ... 46 like lines cut
&OBST ID='单扇 - 与墙齐:750 x 2000mm:346004', XB=9.5,10.0,34.5,35.5,10.5,12.5, RGB=210,159,95, SURF_ID='门 - 嵌板'/ 
&OBST ID='单扇 - 与墙齐:750 x 2000mm:346154', XB=26.5,27.0,37.5,38.5,10.5,12.5, RGB=210,159,95, SURF_ID='门 - 嵌板'/ 
&OBST ID='单扇 - 与墙齐:750 x 2000mm:346306', XB=10.0,10.5,18.0,19.0,10.5,12.5, RGB=210,159,95, SURF_ID='门 - 嵌板'/ 
&OBST ID='单扇 - 与墙齐:750 x 2000mm:346330', XB=10.0,10.5,11.0,12.0,10.5,12.5, RGB=210,159,95, SURF_ID='门 - 嵌板'/ 
&OBST ID='单扇 - 与墙齐:750 x 2000mm:346492', XB=37.0,37.5,7.0,8.0,10.5,12.5, RGB=210,159,95, SURF_ID='门 - 嵌板'/ 
&OBST ID='单扇 - 与墙齐:750 x 2000mm:346676', XB=21.0,21.5,19.0,20.0,10.5,12.5, RGB=210,159,95, SURF_ID='门 - 嵌板'/ 
&OBST ID='单扇 - 与墙齐:750 x 2000mm:346736', XB=21.0,22.0,51.0,51.5,10.5,12.5, RGB=210,159,95, SURF_ID='门 - 嵌板'/ 
&OBST ID='单扇 - 与墙齐:750 x 2000mm:346861', XB=9.5,10.0,47.0,47.5,10.5,12.5, RGB=118,70,51, SURF_ID='门 - 框架'/ 
&OBST ID='单扇 - 与墙齐:750 x 2000mm:346861', XB=9.5,10.0,47.5,48.0,10.5,12.5, RGB=210,159,95, SURF_ID='门 - 嵌板'/ 
&OBST ID='单扇 - 与墙齐:750 x 2000mm:346861', XB=10.0,10.5,47.0,47.5,10.5,12.5, RGB=118,70,51, SURF_ID='门 - 框架'/ 
&OBST ID='单扇 - 与墙齐:750 x 2000mm:346889', XB=9.5,10.0,25.0,25.5,10.5,12.5, RGB=210,159,95, SURF_ID='门 - 嵌板'/ 
&OBST ID='单扇 - 与墙齐:750 x 2000mm:346889', XB=9.5,10.0,25.5,26.0,10.5,12.5, RGB=118,70,51, SURF_ID='门 - 框架'/ 
&OBST ID='单扇 - 与墙齐:750 x 2000mm:346889', XB=10.0,10.5,25.5,26.0,10.5,12.5, RGB=118,70,51, SURF_ID='门 - 框架'/ 
&OBST ID='单扇 - 与墙齐:750 x 2000mm:350507', XB=37.5,38.0,41.5,42.5,10.5,12.5, RGB=210,159,95, SURF_ID='门 - 嵌板'/ 
&OBST ID='单扇 - 与墙齐:750 x 2000mm:350529', XB=37.0,37.5,46.5,47.5,10.5,12.5, RGB=210,159,95, SURF_ID='门 - 嵌板'/ 
&OBST ID='单扇 - 与墙齐:750 x 2000mm:350569', XB=37.5,38.0,28.0,29.0,10.5,12.5, RGB=210,159,95, SURF_ID='门 - 嵌板'/ 
&OBST ID='单扇 - 与墙齐:750 x 2000mm:350651', XB=37.0,37.5,16.0,17.0,10.5,12.5, RGB=210,159,95, SURF_ID='门 - 嵌板'/ 
&OBST ID='单扇 - 与墙齐:750 x 2000mm:350757', XB=24.5,25.0,9.0,9.5,10.5,12.5, RGB=210,159,95, SURF_ID='门 - 嵌板'/ 
&OBST ID='单扇 - 与墙齐:750 x 2000mm:350757', XB=25.0,25.5,9.0,9.5,10.5,12.5, RGB=118,70,51, SURF_ID='门 - 框架'/ 
&OBST ID='人防门_单扇密闭门_双向门_有门槛:人防门_单扇密闭门_双向门_有门槛 2:591998', XB=2.5,3.0,40.5,41.0,11.0,13.5, RGB=247,48,0, SURF_ID='IfcDoor'/ 
&OBST ID='人防门_单扇密闭门_双向门_有门槛:人防门_单扇密闭门_双向门_有门槛 2:591998', XB=2.5,3.0,41.0,42.5,13.0,13.5, RGB=247,48,0, SURF_ID='IfcDoor'/ 
&OBST ID='单扇 - 与墙齐:750 x 2000mm:592074', XB=8.5,9.5,21.5,22.0,10.5,12.5, RGB=210,159,95, SURF_ID='门 - 嵌板'/ 
&OBST ID='单扇 - 与墙齐:750 x 2000mm:592297', XB=5.5,6.0,15.0,15.5,10.5,12.5, RGB=210,159,95, SURF_ID='门 - 嵌板'/ 
&OBST ID='单扇 - 与墙齐:750 x 2000mm:592435', XB=18.0,18.5,16.0,17.0,10.5,12.5, RGB=210,159,95, SURF_ID='门 - 嵌板'/ 
&OBST ID='人防门_单扇密闭门_双向门_有门槛:人防门_单扇密闭门_双向门_有门槛 2:592477', XB=17.5,19.0,3.0,3.5,13.0,13.5, RGB=247,48,0, SURF_ID='IfcDoor'/ 
&OBST ID='单扇 - 与墙齐:750 x 2000mm:592678', XB=30.0,30.5,17.5,18.0,10.5,12.5, RGB=210,159,95, SURF_ID='门 - 嵌板'/ 
&OBST ID='单扇 - 与墙齐:750 x 2000mm:592714', XB=35.5,36.0,17.5,18.0,10.5,12.5, RGB=210,159,95, SURF_ID='门 - 嵌板'/ 
&OBST ID='单扇 - 与墙齐:750 x 2000mm:592714', XB=35.0,35.5,17.5,18.0,10.5,12.5, RGB=118,70,51, SURF_ID='门 - 框架'/ 
&OBST ID='单扇 - 与墙齐:750 x 2000mm:592714', XB=35.0,35.5,18.0,18.5,10.5,12.5, RGB=118,70,51, SURF_ID='门 - 框架'/ 
&OBST ID='单扇 - 与墙齐:750 x 2000mm:592780', XB=37.5,38.0,21.0,21.5,10.5,12.5, RGB=118,70,51, SURF_ID='门 - 框架'/ 
&OBST ID='单扇 - 与墙齐:750 x 2000mm:592780', XB=37.5,38.0,21.5,22.0,10.5,12.5, RGB=118,70,51, SURF_ID='门 - 框架'/ 
&OBST ID='单扇 - 与墙齐:750 x 2000mm:592780', XB=38.0,38.5,21.5,22.0,10.5,12.5, RGB=210,159,95, SURF_ID='门 - 嵌板'/ 
&OBST ID='单扇 - 与墙齐:750 x 2000mm:592858', XB=40.5,41.0,17.5,18.0,10.5,12.5, RGB=210,159,95, SURF_ID='门 - 嵌板'/ 
&OBST ID='单扇 - 与墙齐:750 x 2000mm:592966', XB=26.0,27.0,15.0,15.5,10.5,12.5, RGB=210,159,95, SURF_ID='门 - 嵌板'/ 
&OBST ID='单扇 - 与墙齐:750 x 2000mm:593002', XB=33.0,34.0,15.0,15.5,10.5,12.5, RGB=210,159,95, SURF_ID='门 - 嵌板'/ 
&OBST ID='单扇 - 与墙齐:750 x 2000mm:593090', XB=38.5,39.0,15.0,15.5,10.5,12.5, RGB=210,159,95, SURF_ID='门 - 嵌板'/ 
&OBST ID='单扇 - 与墙齐:750 x 2000mm:593090', XB=39.0,39.5,15.0,15.5,10.5,12.5, RGB=118,70,51, SURF_ID='门 - 框架'/ 
&OBST ID='单扇 - 与墙齐:750 x 2000mm:593090', XB=39.0,39.5,15.5,16.0,10.5,12.5, RGB=118,70,51, SURF_ID='门 - 框架'/ 
&OBST ID='栏杆扶手:900mm 圆管:356257', XB=40.5,45.0,25.5,26.0,7.0,7.5, RGB=242,240,189, SURF_ID='IfcRailing'/ 
&OBST ID='栏杆扶手:900mm 圆管:356257', XB=40.5,45.0,25.5,26.0,7.5,8.0, RGB=242,240,189, SURF_ID='IfcRailing'/ 
&OBST ID='栏杆扶手:900mm 圆管:356257', XB=40.5,41.0,25.5,26.0,7.5,8.0, RGB=242,240,189, SURF_ID='IfcRailing'/ 
&OBST ID='栏杆扶手:900mm 圆管:356257', XB=40.5,41.0,26.5,27.0,7.5,8.0, RGB=242,240,189, SURF_ID='IfcRailing'/ 
&OBST ID='栏杆扶手:900mm 圆管:356257', XB=40.5,41.0,27.5,28.0,7.5,8.0, RGB=242,240,189, SURF_ID='IfcRailing'/ 
&OBST ID='栏杆扶手:900mm 圆管:356257', XB=40.5,41.0,28.5,29.0,7.5,8.0, RGB=242,240,189, SURF_ID='IfcRailing'/ 
&OBST ID='栏杆扶手:900mm 圆管:356257', XB=40.5,41.0,29.5,30.0,7.5,8.0, RGB=242,240,189, SURF_ID='IfcRailing'/ 
&OBST ID='栏杆扶手:900mm 圆管:356257', XB=41.0,41.5,25.5,26.0,7.5,8.0, RGB=242,240,189, SURF_ID='IfcRailing'/ 
&OBST ID='栏杆扶手:900mm 圆管:356257', XB=42.0,42.5,25.5,26.0,7.5,8.0, RGB=242,240,189, SURF_ID='IfcRailing'/ 
&OBST ID='栏杆扶手:900mm 圆管:356257', XB=43.0,43.5,25.5,26.0,7.5,8.0, RGB=242,240,189, SURF_ID='IfcRailing'/ 
&OBST ID='栏杆扶手:900mm 圆管:356257', XB=44.0,44.5,25.5,26.0,7.5,8.0, RGB=242,240,189, SURF_ID='IfcRailing'/ 
&OBST ID='栏杆扶手:900mm 圆管:356257', XB=45.0,45.5,25.5,26.0,7.5,8.0, RGB=242,240,189, SURF_ID='IfcRailing'/ 
&OBST ID='栏杆扶手:900mm 圆管:356459', XB=1.0,6.0,25.5,26.0,7.0,7.5, RGB=242,240,189, SURF_ID='IfcRailing'/ 
&OBST ID='栏杆扶手:900mm 圆管:356459', XB=1.0,6.0,25.5,26.0,7.5,8.0, RGB=242,240,189, SURF_ID='IfcRailing'/ 
&OBST ID='栏杆扶手:900mm 圆管:356459', XB=1.0,1.5,25.5,26.0,7.5,8.0, RGB=242,240,189, SURF_ID='IfcRailing'/ 
&OBST ID='栏杆扶手:900mm 圆管:356459', XB=1.0,1.5,26.5,27.0,7.5,8.0, RGB=242,240,189, SURF_ID='IfcRailing'/ 
&OBST ID='栏杆扶手:900mm 圆管:356459', XB=1.0,1.5,27.5,28.0,7.5,8.0, RGB=242,240,189, SURF_ID='IfcRailing'/ 
&OBST ID='栏杆扶手:900mm 圆管:356459', XB=1.0,1.5,28.5,29.0,7.5,8.0, RGB=242,240,189, SURF_ID='IfcRailing'/ 
&OBST ID='栏杆扶手:900mm 圆管:356459', XB=1.0,1.5,29.5,30.0,7.5,8.0, RGB=242,240,189, SURF_ID='IfcRailing'/ 
&OBST ID='栏杆扶手:900mm 圆管:356459', XB=2.0,2.5,25.5,26.0,7.5,8.0, RGB=242,240,189, SURF_ID='IfcRailing'/ 
! ... 4 like lines cut
&OBST ID='楼板:120:339230', XB=2.5,43.5,3.0,52.0,10.0,10.5, SURF_ID='默认楼板'/ 
&OBST ID='基本墙:常规 - 200mm:336952', XB=2.5,5.5,15.0,15.5,10.5,14.5, RGB=121,121,121, SURF_ID='墙'/ 
&OBST ID='基本墙:常规 - 200mm:336952', XB=5.5,6.0,15.0,15.5,12.5,14.5, RGB=121,121,121, SURF_ID='墙'/ 
&OBST ID='基本墙:常规 - 200mm:336952', XB=6.0,9.5,15.0,15.5,10.5,14.5, RGB=121,121,121, SURF_ID='墙'/ 
&OBST ID='基本墙:常规 - 200mm:336952', XB=10.0,12.5,15.0,15.5,10.5,14.5, RGB=121,121,121, SURF_ID='墙'/ 
&OBST ID='基本墙:常规 - 200mm:336952', XB=12.5,14.0,15.0,15.5,10.5,11.0, RGB=121,121,121, SURF_ID='墙'/ 
&OBST ID='基本墙:常规 - 200mm:336952', XB=12.5,14.0,15.0,15.5,12.5,14.5, RGB=121,121,121, SURF_ID='墙'/ 
&OBST ID='基本墙:常规 - 200mm:336952', XB=14.0,23.5,15.0,15.5,10.5,14.5, RGB=121,121,121, SURF_ID='墙'/ 
&OBST ID='基本墙:常规 - 200mm:336952', XB=23.5,25.0,15.0,15.5,10.5,11.0, RGB=121,121,121, SURF_ID='墙'/ 
&OBST ID='基本墙:常规 - 200mm:336952', XB=23.5,25.0,15.0,15.5,12.5,14.5, RGB=121,121,121, SURF_ID='墙'/ 
&OBST ID='基本墙:常规 - 200mm:336952', XB=25.0,26.0,15.0,15.5,10.5,14.5, RGB=121,121,121, SURF_ID='墙'/ 
&OBST ID='基本墙:常规 - 200mm:336952', XB=26.0,27.0,15.0,15.5,12.5,14.5, RGB=121,121,121, SURF_ID='墙'/ 
&OBST ID='基本墙:常规 - 200mm:336952', XB=27.0,33.0,15.0,15.5,10.5,14.5, RGB=121,121,121, SURF_ID='墙'/ 
&OBST ID='基本墙:常规 - 200mm:336952', XB=33.0,34.0,15.0,15.5,12.5,14.5, RGB=121,121,121, SURF_ID='墙'/ 
&OBST ID='基本墙:常规 - 200mm:336952', XB=34.0,37.0,15.0,15.5,10.5,14.5, RGB=121,121,121, SURF_ID='墙'/ 
&OBST ID='基本墙:常规 - 200mm:336952', XB=37.5,38.5,15.0,15.5,10.5,14.5, RGB=121,121,121, SURF_ID='墙'/ 
&OBST ID='基本墙:常规 - 200mm:336952', XB=38.5,39.0,15.0,15.5,12.5,14.5, RGB=121,121,121, SURF_ID='墙'/ 
&OBST ID='基本墙:常规 - 200mm:336952', XB=39.0,43.5,15.0,15.5,10.5,14.5, RGB=121,121,121, SURF_ID='墙'/ 
&OBST ID='基本墙:常规 - 200mm:337190', XB=2.5,6.0,21.0,21.5,10.5,14.5, RGB=121,121,121, SURF_ID='墙'/ 
&OBST ID='基本墙:常规 - 200mm:337190', XB=6.0,7.0,21.0,21.5,10.5,11.0, RGB=121,121,121, SURF_ID='墙'/ 
&OBST ID='基本墙:常规 - 200mm:337190', XB=6.0,7.0,21.0,21.5,12.5,14.5, RGB=121,121,121, SURF_ID='墙'/ 
! ... 26 like lines cut
&OBST ID='基本墙:常规 - 200mm:336266', XB=2.5,17.5,3.0,3.5,10.5,14.5, SURF_ID='墙'/ 
&OBST ID='基本墙:常规 - 200mm:336266', XB=17.5,19.0,3.0,3.5,10.5,11.0, RGB=121,121,121, SURF_ID='墙'/ 
&OBST ID='基本墙:常规 - 200mm:336266', XB=17.5,19.0,3.0,3.5,13.0,14.5, RGB=121,121,121, SURF_ID='墙'/ 
&OBST ID='基本墙:常规 - 200mm:336266', XB=19.0,44.0,3.0,3.5,10.5,14.5, SURF_ID='墙'/ 
&OBST ID='基本墙:常规 - 200mm:336395', XB=43.5,44.0,3.0,52.0,10.5,14.5, RGB=121,121,121, SURF_ID='墙'/ 
&OBST ID='基本墙:常规 - 200mm:336485', XB=2.5,43.5,52.0,52.0,10.5,14.5, RGB=121,121,121, SURF_ID='墙'/ 
&OBST ID='基本墙:常规 - 200mm:336529', XB=2.5,3.0,41.0,42.5,10.5,11.0, RGB=121,121,121, SURF_ID='墙'/ 
&OBST ID='基本墙:常规 - 200mm:336529', XB=2.5,3.0,3.0,41.0,10.5,14.5, RGB=121,121,121, SURF_ID='墙'/ 
&OBST ID='基本墙:常规 - 200mm:336529', XB=2.5,3.0,42.5,52.0,10.5,14.5, RGB=121,121,121, SURF_ID='墙'/ 
&OBST ID='基本墙:常规 - 200mm:336529', XB=2.5,3.0,41.0,42.5,13.0,14.5, RGB=121,121,121, SURF_ID='墙'/ 
&OBST ID='基本墙:常规 - 200mm:336824', XB=9.5,10.0,5.5,6.5,10.5,11.0, RGB=121,121,121, SURF_ID='墙'/ 
&OBST ID='基本墙:常规 - 200mm:336824', XB=9.5,10.0,28.0,29.5,10.5,11.0, RGB=121,121,121, SURF_ID='墙'/ 
&OBST ID='基本墙:常规 - 200mm:336824', XB=9.5,10.0,37.5,38.5,10.5,11.0, RGB=121,121,121, SURF_ID='墙'/ 
&OBST ID='基本墙:常规 - 200mm:336824', XB=9.5,10.0,43.0,44.0,10.5,11.0, RGB=121,121,121, SURF_ID='墙'/ 
&OBST ID='基本墙:常规 - 200mm:336824', XB=9.5,10.0,49.0,50.0,10.5,11.0, RGB=121,121,121, SURF_ID='墙'/ 
&OBST ID='基本墙:常规 - 200mm:336824', XB=9.5,10.0,3.0,5.5,10.5,14.5, RGB=121,121,121, SURF_ID='墙'/ 
&OBST ID='基本墙:常规 - 200mm:336824', XB=9.5,10.0,6.5,11.0,10.5,14.5, RGB=121,121,121, SURF_ID='墙'/ 
&OBST ID='基本墙:常规 - 200mm:336824', XB=9.5,10.0,12.0,18.0,10.5,14.5, RGB=121,121,121, SURF_ID='墙'/ 
&OBST ID='基本墙:常规 - 200mm:336824', XB=9.5,10.0,19.0,25.0,10.5,14.5, RGB=121,121,121, SURF_ID='墙'/ 
&OBST ID='基本墙:常规 - 200mm:336824', XB=9.5,10.0,25.5,28.0,10.5,14.5, RGB=121,121,121, SURF_ID='墙'/ 
&OBST ID='基本墙:常规 - 200mm:336824', XB=9.5,10.0,29.5,34.5,10.5,14.5, RGB=121,121,121, SURF_ID='墙'/ 
&OBST ID='基本墙:常规 - 200mm:336824', XB=9.5,10.0,35.5,37.5,10.5,14.5, RGB=121,121,121, SURF_ID='墙'/ 
&OBST ID='基本墙:常规 - 200mm:336824', XB=9.5,10.0,38.5,43.0,10.5,14.5, RGB=121,121,121, SURF_ID='墙'/ 
&OBST ID='基本墙:常规 - 200mm:336824', XB=9.5,10.0,44.0,47.5,10.5,14.5, RGB=121,121,121, SURF_ID='墙'/ 
! ... 83 like lines cut
&OBST ID='推拉窗6:1200 x 1500mm:350247', XB=9.5,10.0,28.0,29.5,11.0,11.5, RGB=0,128,192, TRANSPARENCY=0.101961, SURF_ID='玻璃'/ 
&OBST ID='推拉窗6:1200 x 1500mm:350247', XB=9.5,10.0,28.0,29.5,12.0,12.5, RGB=0,128,192, TRANSPARENCY=0.101961, SURF_ID='玻璃'/ 
&OBST ID='推拉窗6:1200 x 1500mm:350247', XB=9.5,10.0,28.0,28.5,11.5,12.5, RGB=0,128,192, TRANSPARENCY=0.101961, SURF_ID='玻璃'/ 
&OBST ID='推拉窗6:1200 x 1500mm:350247', XB=9.5,10.0,29.5,30.0,11.5,12.5, RGB=0,128,192, TRANSPARENCY=0.101961, SURF_ID='玻璃'/ 
&OBST ID='推拉窗6:1200 x 1500mm:350247', XB=9.5,10.0,28.0,29.5,11.5,12.5, RGB=0,128,192, TRANSPARENCY=0.101961, SURF_ID='玻璃'/ 
&OBST ID='推拉窗6:1200 x 1500mm:350283', XB=9.5,10.0,37.5,38.5,11.0,11.5, RGB=0,128,192, TRANSPARENCY=0.101961, SURF_ID='玻璃'/ 
&OBST ID='推拉窗6:1200 x 1500mm:350283', XB=9.5,10.0,37.5,38.5,12.0,12.5, RGB=0,128,192, TRANSPARENCY=0.101961, SURF_ID='玻璃'/ 
&OBST ID='推拉窗6:1200 x 1500mm:350283', XB=9.5,10.0,37.5,38.0,11.5,12.5, RGB=0,128,192, TRANSPARENCY=0.101961, SURF_ID='玻璃'/ 
&OBST ID='推拉窗6:1200 x 1500mm:350283', XB=9.5,10.0,38.5,39.0,11.5,12.5, RGB=0,128,192, TRANSPARENCY=0.101961, SURF_ID='玻璃'/ 
&OBST ID='推拉窗6:1200 x 1500mm:350283', XB=9.5,10.0,37.5,38.5,11.5,12.5, RGB=0,128,192, TRANSPARENCY=0.101961, SURF_ID='玻璃'/ 
&OBST ID='推拉窗6:1200 x 1500mm:350335', XB=9.5,10.0,43.0,44.0,11.0,11.5, RGB=0,128,192, TRANSPARENCY=0.101961, SURF_ID='玻璃'/ 
&OBST ID='推拉窗6:1200 x 1500mm:350335', XB=9.5,10.0,43.0,44.0,12.0,12.5, RGB=0,128,192, TRANSPARENCY=0.101961, SURF_ID='玻璃'/ 
&OBST ID='推拉窗6:1200 x 1500mm:350335', XB=9.5,10.0,43.0,43.5,11.5,12.5, RGB=0,128,192, TRANSPARENCY=0.101961, SURF_ID='玻璃'/ 
&OBST ID='推拉窗6:1200 x 1500mm:350335', XB=9.5,10.0,44.0,44.5,11.5,12.5, RGB=0,128,192, TRANSPARENCY=0.101961, SURF_ID='玻璃'/ 
&OBST ID='推拉窗6:1200 x 1500mm:350335', XB=9.5,10.0,43.0,44.0,11.5,12.5, RGB=0,128,192, TRANSPARENCY=0.101961, SURF_ID='玻璃'/ 
&OBST ID='推拉窗6:1200 x 1500mm:350373', XB=9.5,10.0,49.0,50.0,11.0,11.5, RGB=0,128,192, TRANSPARENCY=0.101961, SURF_ID='玻璃'/ 
&OBST ID='推拉窗6:1200 x 1500mm:350373', XB=9.5,10.0,49.0,50.0,12.0,12.5, RGB=0,128,192, TRANSPARENCY=0.101961, SURF_ID='玻璃'/ 
&OBST ID='推拉窗6:1200 x 1500mm:350373', XB=9.5,10.0,49.0,49.5,11.5,12.5, RGB=0,128,192, TRANSPARENCY=0.101961, SURF_ID='玻璃'/ 
&OBST ID='推拉窗6:1200 x 1500mm:350373', XB=9.5,10.0,50.0,50.5,11.5,12.5, RGB=0,128,192, TRANSPARENCY=0.101961, SURF_ID='玻璃'/ 
&OBST ID='推拉窗6:1200 x 1500mm:350373', XB=9.5,10.0,49.0,50.0,11.5,12.5, RGB=0,128,192, TRANSPARENCY=0.101961, SURF_ID='玻璃'/ 
! ... 79 like lines cut
&OBST ID='单扇 - 与墙齐:750 x 2000mm:352776', XB=9.5,10.0,34.5,35.5,14.5,16.5, RGB=210,159,95, SURF_ID='门 - 嵌板'/ 
&OBST ID='单扇 - 与墙齐:750 x 2000mm:352783', XB=10.0,10.5,11.0,12.0,14.5,16.5, RGB=210,159,95, SURF_ID='门 - 嵌板'/ 
&OBST ID='单扇 - 与墙齐:750 x 2000mm:352784', XB=12.5,13.0,9.0,9.5,14.5,16.5, RGB=118,70,51, SURF_ID='门 - 框架'/ 
&OBST ID='单扇 - 与墙齐:750 x 2000mm:352784', XB=13.0,13.5,9.0,9.5,14.5,16.5, RGB=210,159,95, SURF_ID='门 - 嵌板'/ 
&OBST ID='单扇 - 与墙齐:750 x 2000mm:352787', XB=37.0,37.5,7.0,8.0,14.5,16.5, RGB=210,159,95, SURF_ID='门 - 嵌板'/ 
&OBST ID='单扇 - 与墙齐:750 x 2000mm:352788', XB=37.0,37.5,19.0,20.0,14.5,16.5, RGB=210,159,95, SURF_ID='门 - 嵌板'/ 
&OBST ID='单扇 - 与墙齐:750 x 2000mm:352791', XB=14.5,15.0,44.5,45.0,14.5,16.5, RGB=210,159,95, SURF_ID='门 - 嵌板'/ 
&OBST ID='单扇 - 与墙齐:750 x 2000mm:352791', XB=15.0,15.5,44.5,45.0,14.5,16.5, RGB=118,70,51, SURF_ID='门 - 框架'/ 
&OBST ID='单扇 - 与墙齐:750 x 2000mm:352795', XB=9.5,10.0,47.0,47.5,14.5,16.5, RGB=118,70,51, SURF_ID='门 - 框架'/ 
&OBST ID='单扇 - 与墙齐:750 x 2000mm:352795', XB=9.5,10.0,47.5,48.0,14.5,16.5, RGB=210,159,95, SURF_ID='门 - 嵌板'/ 
&OBST ID='单扇 - 与墙齐:750 x 2000mm:352795', XB=10.0,10.5,47.0,47.5,14.5,16.5, RGB=118,70,51, SURF_ID='门 - 框架'/ 
&OBST ID='单扇 - 与墙齐:750 x 2000mm:352796', XB=9.5,10.0,25.0,25.5,14.5,16.5, RGB=210,159,95, SURF_ID='门 - 嵌板'/ 
&OBST ID='单扇 - 与墙齐:750 x 2000mm:352796', XB=9.5,10.0,25.5,26.0,14.5,16.5, RGB=118,70,51, SURF_ID='门 - 框架'/ 
&OBST ID='单扇 - 与墙齐:750 x 2000mm:352796', XB=10.0,10.5,25.5,26.0,14.5,16.5, RGB=118,70,51, SURF_ID='门 - 框架'/ 
&OBST ID='单扇 - 与墙齐:750 x 2000mm:352806', XB=37.5,38.0,41.5,42.5,14.5,16.5, RGB=210,159,95, SURF_ID='门 - 嵌板'/ 
&OBST ID='单扇 - 与墙齐:750 x 2000mm:352807', XB=37.0,37.5,46.5,47.5,14.5,16.5, RGB=210,159,95, SURF_ID='门 - 嵌板'/ 
&OBST ID='单扇 - 与墙齐:750 x 2000mm:352808', XB=37.5,38.0,28.0,29.0,14.5,16.5, RGB=210,159,95, SURF_ID='门 - 嵌板'/ 
&OBST ID='单扇 - 与墙齐:750 x 2000mm:352809', XB=35.5,36.5,32.0,32.5,14.5,16.5, RGB=210,159,95, SURF_ID='门 - 嵌板'/ 
&OBST ID='单扇 - 与墙齐:750 x 2000mm:352812', XB=24.5,25.0,9.0,9.5,14.5,16.5, RGB=210,159,95, SURF_ID='门 - 嵌板'/ 
&OBST ID='单扇 - 与墙齐:750 x 2000mm:352812', XB=25.0,25.5,9.0,9.5,14.5,16.5, RGB=118,70,51, SURF_ID='门 - 框架'/ 
&OBST ID='单扇 - 与墙齐:750 x 2000mm:353602', XB=25.5,26.0,11.5,12.0,14.5,16.5, RGB=118,70,51, SURF_ID='门 - 框架'/ 
&OBST ID='单扇 - 与墙齐:750 x 2000mm:353602', XB=26.0,26.5,11.0,11.5,14.5,16.5, RGB=210,159,95, SURF_ID='门 - 嵌板'/ 
&OBST ID='单扇 - 与墙齐:750 x 2000mm:353602', XB=26.0,26.5,11.5,12.0,14.5,16.5, RGB=118,70,51, SURF_ID='门 - 框架'/ 
&OBST ID='单扇 - 与墙齐:750 x 2000mm:353678', XB=20.0,20.5,11.5,12.5,14.5,16.5, RGB=210,159,95, SURF_ID='门 - 嵌板'/ 
&OBST ID='单扇 - 与墙齐:750 x 2000mm:353728', XB=13.5,14.0,17.0,17.5,14.5,16.5, RGB=118,70,51, SURF_ID='门 - 框架'/ 
&OBST ID='单扇 - 与墙齐:750 x 2000mm:353728', XB=13.5,14.0,17.5,18.0,14.5,16.5, RGB=210,159,95, SURF_ID='门 - 嵌板'/ 
&OBST ID='单扇 - 与墙齐:750 x 2000mm:353952', XB=33.5,34.0,44.5,45.0,14.5,16.5, RGB=210,159,95, SURF_ID='门 - 嵌板'/ 
&OBST ID='单扇 - 与墙齐:750 x 2000mm:354032', XB=16.0,17.0,15.0,15.5,14.5,16.5, RGB=210,159,95, SURF_ID='门 - 嵌板'/ 
&OBST ID='单扇 - 与墙齐:750 x 2000mm:355017', XB=24.5,25.0,36.5,37.0,14.5,16.5, RGB=210,159,95, SURF_ID='门 - 嵌板'/ 
&OBST ID='单扇 - 与墙齐:750 x 2000mm:355017', XB=25.0,25.5,36.5,37.0,14.5,16.5, RGB=118,70,51, SURF_ID='门 - 框架'/ 
&OBST ID='单扇 - 与墙齐:750 x 2000mm:355047', XB=23.0,23.5,32.0,32.5,14.5,16.5, RGB=118,70,51, SURF_ID='门 - 框架'/ 
&OBST ID='单扇 - 与墙齐:750 x 2000mm:355047', XB=23.5,24.0,32.0,32.5,14.5,16.5, RGB=210,159,95, SURF_ID='门 - 嵌板'/ 
&OBST ID='单扇 - 与墙齐:750 x 2000mm:593602', XB=12.0,13.0,39.0,39.5,14.5,16.5, RGB=210,159,95, SURF_ID='门 - 嵌板'/ 
&OBST ID='单扇 - 与墙齐:750 x 2000mm:593662', XB=16.5,17.5,39.0,39.5,14.5,16.5, RGB=210,159,95, SURF_ID='门 - 嵌板'/ 
&OBST ID='单扇 - 与墙齐:750 x 2000mm:593684', XB=29.5,30.0,39.0,39.5,14.5,16.5, RGB=210,159,95, SURF_ID='门 - 嵌板'/ 
&OBST ID='单扇 - 与墙齐:750 x 2000mm:593740', XB=33.5,34.5,39.0,39.5,14.5,16.5, RGB=210,159,95, SURF_ID='门 - 嵌板'/ 
&OBST ID='单扇 - 与墙齐:750 x 2000mm:593996', XB=31.0,31.5,50.5,51.0,14.5,16.5, RGB=118,70,51, SURF_ID='门 - 框架'/ 
&OBST ID='单扇 - 与墙齐:750 x 2000mm:593996', XB=31.0,31.5,51.0,51.5,14.5,16.5, RGB=118,70,51, SURF_ID='门 - 框架'/ 
&OBST ID='单扇 - 与墙齐:750 x 2000mm:593996', XB=31.5,32.0,50.5,51.0,14.5,16.5, RGB=210,159,95, SURF_ID='门 - 嵌板'/ 
&OBST ID='人防门_单扇密闭门_双向门_有门槛:人防门_单扇密闭门_双向门_有门槛:594020', XB=13.0,13.5,51.5,52.0,15.0,17.0, RGB=247,48,0, SURF_ID='IfcDoor'/ 
&OBST ID='人防门_单扇密闭门_双向门_有门槛:人防门_单扇密闭门_双向门_有门槛:594020', XB=12.0,13.0,51.5,52.0,14.5,15.0, RGB=247,48,0, SURF_ID='IfcDoor'/ 
&OBST ID='人防门_单扇密闭门_双向门_有门槛:人防门_单扇密闭门_双向门_有门槛:594020', XB=13.0,13.5,50.5,51.0,15.0,17.0, RGB=247,48,0, SURF_ID='IfcDoor'/ 
&OBST ID='单扇 - 与墙齐:750 x 2000mm:594310', XB=10.5,11.0,32.0,32.5,14.5,16.5, RGB=210,159,95, SURF_ID='门 - 嵌板'/ 
&OBST ID='单扇 - 与墙齐:750 x 2000mm:594550', XB=14.5,15.5,21.0,21.5,14.5,16.5, RGB=210,159,95, SURF_ID='门 - 嵌板'/ 
&OBST ID='单扇 - 与墙齐:750 x 2000mm:594592', XB=23.0,24.0,21.0,21.5,14.5,16.5, RGB=210,159,95, SURF_ID='门 - 嵌板'/ 
&OBST ID='单扇 - 与墙齐:750 x 2000mm:595526', XB=35.5,36.5,21.0,21.5,14.5,16.5, RGB=210,159,95, SURF_ID='门 - 嵌板'/ 
&OBST ID='单扇 - 与墙齐:750 x 2000mm:595634', XB=40.5,41.0,21.5,22.0,14.5,16.5, RGB=210,159,95, SURF_ID='门 - 嵌板'/ 
&OBST ID='人防门_单扇密闭门_双向门_有门槛:人防门_单扇密闭门_双向门_有门槛:595650', XB=42.5,43.0,19.5,20.0,15.0,17.0, RGB=247,48,0, SURF_ID='IfcDoor'/ 
&OBST ID='人防门_单扇密闭门_双向门_有门槛:人防门_单扇密闭门_双向门_有门槛:595650', XB=43.0,43.5,19.0,19.5,15.0,17.0, RGB=247,48,0, SURF_ID='IfcDoor'/ 
&OBST ID='人防门_单扇密闭门_双向门_有门槛:人防门_单扇密闭门_双向门_有门槛:595650', XB=43.0,43.5,19.0,19.5,15.0,17.0, RGB=247,48,0, SURF_ID='IfcDoor'/ 
&OBST ID='人防门_单扇密闭门_双向门_有门槛:人防门_单扇密闭门_双向门_有门槛:595650', XB=43.5,44.0,18.5,19.0,15.0,15.5, RGB=247,48,0, SURF_ID='IfcDoor'/ 
&OBST ID='单扇 - 与墙齐:750 x 2000mm:595736', XB=6.0,7.0,21.5,22.0,14.5,16.5, RGB=210,159,95, SURF_ID='门 - 嵌板'/ 
&OBST ID='楼板:120:354201', XB=2.5,13.5,21.5,39.0,14.0,14.5, COLOR='GRAY 50', SURF_ID='默认楼板01'/ 
&OBST ID='楼板:120:354201', XB=2.5,18.5,39.5,50.5,14.0,14.5, COLOR='GRAY 50', SURF_ID='默认楼板01'/ 
&OBST ID='楼板:120:354201', XB=2.5,43.5,3.0,21.5,14.0,14.5, COLOR='GRAY 50', SURF_ID='默认楼板01'/ 
&OBST ID='楼板:120:354201', XB=2.5,43.5,39.0,39.5,14.0,14.5, COLOR='GRAY 50', SURF_ID='默认楼板01'/ 
&OBST ID='楼板:120:354201', XB=2.5,43.5,50.5,52.0,14.0,14.5, COLOR='GRAY 50', SURF_ID='默认楼板01'/ 
&OBST ID='楼板:120:354201', XB=20.5,26.5,21.5,39.0,14.0,14.5, COLOR='GRAY 50', SURF_ID='默认楼板01'/ 
&OBST ID='楼板:120:354201', XB=28.5,43.5,39.5,50.5,14.0,14.5, COLOR='GRAY 50', SURF_ID='默认楼板01'/ 
&OBST ID='楼板:120:354201', XB=33.0,43.5,21.5,39.0,14.0,14.5, COLOR='GRAY 50', SURF_ID='默认楼板01'/ 
&OBST ID='基本墙:常规 - 200mm:338893', XB=2.5,44.0,3.0,3.5,14.5,18.0, RGB=121,121,121, SURF_ID='墙'/ 
&OBST ID='基本墙:常规 - 200mm:338894', XB=43.5,44.0,19.0,20.0,14.5,15.0, RGB=121,121,121, SURF_ID='墙'/ 
&OBST ID='基本墙:常规 - 200mm:338894', XB=43.5,44.0,3.0,19.0,14.5,18.0, RGB=121,121,121, SURF_ID='墙'/ 
&OBST ID='基本墙:常规 - 200mm:338894', XB=43.5,44.0,20.0,52.0,14.5,18.0, RGB=121,121,121, SURF_ID='墙'/ 
&OBST ID='基本墙:常规 - 200mm:338894', XB=43.5,44.0,19.0,20.0,17.0,18.0, RGB=121,121,121, SURF_ID='墙'/ 
&OBST ID='基本墙:常规 - 200mm:338895', XB=2.5,12.0,52.0,52.5,14.5,18.0, RGB=121,121,121, SURF_ID='墙'/ 
&OBST ID='基本墙:常规 - 200mm:338895', XB=12.0,13.0,52.0,52.5,14.5,15.0, RGB=121,121,121, SURF_ID='墙'/ 
&OBST ID='基本墙:常规 - 200mm:338895', XB=12.0,13.0,52.0,52.5,17.0,18.0, RGB=121,121,121, SURF_ID='墙'/ 
&OBST ID='基本墙:常规 - 200mm:338895', XB=13.0,43.5,52.0,52.5,14.5,18.0, RGB=121,121,121, SURF_ID='墙'/ 
&OBST ID='基本墙:常规 - 200mm:338896', XB=2.5,3.0,39.0,40.0,14.5,15.0, RGB=121,121,121, SURF_ID='墙'/ 
&OBST ID='基本墙:常规 - 200mm:338896', XB=2.5,3.0,3.0,39.0,14.5,18.0, RGB=121,121,121, SURF_ID='墙'/ 
&OBST ID='基本墙:常规 - 200mm:338896', XB=2.5,3.0,40.0,52.0,14.5,18.0, RGB=121,121,121, SURF_ID='墙'/ 
&OBST ID='基本墙:常规 - 200mm:338896', XB=2.5,3.0,39.0,40.0,17.0,18.0, RGB=121,121,121, SURF_ID='墙'/ 
&OBST ID='基本墙:常规 - 200mm:338897', XB=9.5,10.0,5.5,6.5,14.5,15.0, RGB=121,121,121, SURF_ID='墙'/ 
&OBST ID='基本墙:常规 - 200mm:338897', XB=9.5,10.0,28.0,29.5,14.5,15.0, RGB=121,121,121, SURF_ID='墙'/ 
&OBST ID='基本墙:常规 - 200mm:338897', XB=9.5,10.0,37.5,38.5,14.5,15.0, RGB=121,121,121, SURF_ID='墙'/ 
&OBST ID='基本墙:常规 - 200mm:338897', XB=9.5,10.0,43.0,44.0,14.5,15.0, RGB=121,121,121, SURF_ID='墙'/ 
&OBST ID='基本墙:常规 - 200mm:338897', XB=9.5,10.0,49.0,50.0,14.5,15.0, RGB=121,121,121, SURF_ID='墙'/ 
&OBST ID='基本墙:常规 - 200mm:338897', XB=9.5,10.0,3.0,5.5,14.5,18.0, RGB=121,121,121, SURF_ID='墙'/ 
&OBST ID='基本墙:常规 - 200mm:338897', XB=9.5,10.0,6.5,11.0,14.5,18.0, RGB=121,121,121, SURF_ID='墙'/ 
! ... 141 like lines cut
&OBST ID='推拉窗6:1200 x 1500mm:352802', XB=9.5,10.0,28.0,29.5,14.5,15.0, RGB=0,128,192, TRANSPARENCY=0.101961, SURF_ID='玻璃'/ 
&OBST ID='推拉窗6:1200 x 1500mm:352802', XB=9.5,10.0,28.0,29.5,16.0,16.5, RGB=0,128,192, TRANSPARENCY=0.101961, SURF_ID='玻璃'/ 
&OBST ID='推拉窗6:1200 x 1500mm:352802', XB=9.5,10.0,28.0,28.5,15.0,16.5, RGB=0,128,192, TRANSPARENCY=0.101961, SURF_ID='玻璃'/ 
&OBST ID='推拉窗6:1200 x 1500mm:352802', XB=9.5,10.0,29.5,30.0,15.0,16.5, RGB=0,128,192, TRANSPARENCY=0.101961, SURF_ID='玻璃'/ 
&OBST ID='推拉窗6:1200 x 1500mm:352802', XB=9.5,10.0,28.0,29.5,15.0,16.5, RGB=0,128,192, TRANSPARENCY=0.101961, SURF_ID='玻璃'/ 
&OBST ID='推拉窗6:1200 x 1500mm:352803', XB=9.5,10.0,37.5,38.5,14.5,15.0, RGB=0,128,192, TRANSPARENCY=0.101961, SURF_ID='玻璃'/ 
&OBST ID='推拉窗6:1200 x 1500mm:352803', XB=9.5,10.0,37.5,38.5,16.0,16.5, RGB=0,128,192, TRANSPARENCY=0.101961, SURF_ID='玻璃'/ 
&OBST ID='推拉窗6:1200 x 1500mm:352803', XB=9.5,10.0,37.5,38.0,15.0,16.5, RGB=0,128,192, TRANSPARENCY=0.101961, SURF_ID='玻璃'/ 
&OBST ID='推拉窗6:1200 x 1500mm:352803', XB=9.5,10.0,38.5,39.0,15.0,16.5, RGB=0,128,192, TRANSPARENCY=0.101961, SURF_ID='玻璃'/ 
&OBST ID='推拉窗6:1200 x 1500mm:352803', XB=9.5,10.0,37.5,38.5,15.0,16.5, RGB=0,128,192, TRANSPARENCY=0.101961, SURF_ID='玻璃'/ 
&OBST ID='推拉窗6:1200 x 1500mm:352804', XB=9.5,10.0,43.0,44.0,14.5,15.0, RGB=0,128,192, TRANSPARENCY=0.101961, SURF_ID='玻璃'/ 
&OBST ID='推拉窗6:1200 x 1500mm:352804', XB=9.5,10.0,43.0,44.0,16.0,16.5, RGB=0,128,192, TRANSPARENCY=0.101961, SURF_ID='玻璃'/ 
&OBST ID='推拉窗6:1200 x 1500mm:352804', XB=9.5,10.0,43.0,43.5,15.0,16.5, RGB=0,128,192, TRANSPARENCY=0.101961, SURF_ID='玻璃'/ 
&OBST ID='推拉窗6:1200 x 1500mm:352804', XB=9.5,10.0,44.0,44.5,15.0,16.5, RGB=0,128,192, TRANSPARENCY=0.101961, SURF_ID='玻璃'/ 
&OBST ID='推拉窗6:1200 x 1500mm:352804', XB=9.5,10.0,43.0,44.0,15.0,16.5, RGB=0,128,192, TRANSPARENCY=0.101961, SURF_ID='玻璃'/ 
&OBST ID='推拉窗6:1200 x 1500mm:352805', XB=9.5,10.0,49.0,50.0,14.5,15.0, RGB=0,128,192, TRANSPARENCY=0.101961, SURF_ID='玻璃'/ 
&OBST ID='推拉窗6:1200 x 1500mm:352805', XB=9.5,10.0,49.0,50.0,16.0,16.5, RGB=0,128,192, TRANSPARENCY=0.101961, SURF_ID='玻璃'/ 
&OBST ID='推拉窗6:1200 x 1500mm:352805', XB=9.5,10.0,49.0,49.5,15.0,16.5, RGB=0,128,192, TRANSPARENCY=0.101961, SURF_ID='玻璃'/ 
&OBST ID='推拉窗6:1200 x 1500mm:352805', XB=9.5,10.0,50.0,50.5,15.0,16.5, RGB=0,128,192, TRANSPARENCY=0.101961, SURF_ID='玻璃'/ 
&OBST ID='推拉窗6:1200 x 1500mm:352805', XB=9.5,10.0,49.0,50.0,15.0,16.5, RGB=0,128,192, TRANSPARENCY=0.101961, SURF_ID='玻璃'/ 
! ... 74 like lines cut
&OBST ID='常规模型 11:常规模型 9:361345', XB=12.5,13.0,32.5,33.0,19.5,67.0, RGB=242,240,189, SURF_ID='IfcBuildingElementProxy'/ 
&OBST ID='常规模型 11:常规模型 9:361345', XB=12.5,13.0,34.5,35.0,19.5,67.0, RGB=242,240,189, SURF_ID='IfcBuildingElementProxy'/ 
&OBST ID='常规模型 11:常规模型 9:361345', XB=12.5,13.0,33.0,34.5,19.5,67.5, RGB=242,240,189, SURF_ID='IfcBuildingElementProxy'/ 
&OBST ID='常规模型 11:常规模型 9:361345', XB=13.0,13.5,32.5,33.0,19.5,67.5, RGB=242,240,189, SURF_ID='IfcBuildingElementProxy'/ 
&OBST ID='常规模型 11:常规模型 9:361345', XB=13.0,13.5,34.5,35.0,19.5,67.5, RGB=242,240,189, SURF_ID='IfcBuildingElementProxy'/ 
&OBST ID='常规模型 11:常规模型 9:361345', XB=13.0,13.5,33.0,34.5,19.5,68.0, RGB=242,240,189, SURF_ID='IfcBuildingElementProxy'/ 
&OBST ID='常规模型 11:常规模型 9:361345', XB=13.0,14.0,32.0,32.5,19.5,67.5, RGB=242,240,189, SURF_ID='IfcBuildingElementProxy'/ 
&OBST ID='常规模型 11:常规模型 9:361345', XB=13.0,14.0,35.0,35.5,19.5,67.5, RGB=242,240,189, SURF_ID='IfcBuildingElementProxy'/ 
&OBST ID='常规模型 11:常规模型 9:361345', XB=13.5,14.0,31.5,32.0,19.5,67.0, RGB=242,240,189, SURF_ID='IfcBuildingElementProxy'/ 
&OBST ID='常规模型 11:常规模型 9:361345', XB=13.5,14.0,35.5,36.0,19.5,67.0, RGB=242,240,189, SURF_ID='IfcBuildingElementProxy'/ 
&OBST ID='常规模型 11:常规模型 9:361345', XB=13.5,14.0,32.5,33.0,19.5,68.0, RGB=242,240,189, SURF_ID='IfcBuildingElementProxy'/ 
&OBST ID='常规模型 11:常规模型 9:361345', XB=13.5,14.0,34.5,35.0,19.5,68.0, RGB=242,240,189, SURF_ID='IfcBuildingElementProxy'/ 
&OBST ID='常规模型 11:常规模型 9:361345', XB=13.5,14.0,33.5,34.0,19.5,68.5, RGB=242,240,189, SURF_ID='IfcBuildingElementProxy'/ 
&OBST ID='常规模型 11:常规模型 9:361345', XB=13.5,14.5,33.0,33.5,19.5,68.5, RGB=242,240,189, SURF_ID='IfcBuildingElementProxy'/ 
&OBST ID='常规模型 11:常规模型 9:361345', XB=13.5,14.5,34.0,34.5,19.5,68.5, RGB=242,240,189, SURF_ID='IfcBuildingElementProxy'/ 
&OBST ID='常规模型 11:常规模型 9:361345', XB=14.0,14.5,33.5,34.0,19.5,69.0, RGB=242,240,189, SURF_ID='IfcBuildingElementProxy'/ 
&OBST ID='常规模型 11:常规模型 9:361345', XB=14.0,15.5,32.5,33.0,19.5,68.5, RGB=242,240,189, SURF_ID='IfcBuildingElementProxy'/ 
&OBST ID='常规模型 11:常规模型 9:361345', XB=14.0,15.5,34.5,35.0,19.5,68.5, RGB=242,240,189, SURF_ID='IfcBuildingElementProxy'/ 
&OBST ID='常规模型 11:常规模型 9:361345', XB=14.0,16.0,31.5,32.0,19.5,67.5, RGB=242,240,189, SURF_ID='IfcBuildingElementProxy'/ 
&OBST ID='常规模型 11:常规模型 9:361345', XB=14.0,16.0,35.5,36.0,19.5,67.5, RGB=242,240,189, SURF_ID='IfcBuildingElementProxy'/ 
! ... 275 like lines cut
&OBST ID='脚手架:脚手架:609441', XB=50.5,62.0,46.0,46.5,19.5,20.0, RGB=0,200,200, TRANSPARENCY=0.501961, SURF_ID='黄色钢管'/ 
&OBST ID='脚手架:脚手架:609441', XB=50.5,62.0,47.0,47.5,19.5,20.0, RGB=0,200,200, TRANSPARENCY=0.501961, SURF_ID='黄色钢管'/ 
&OBST ID='脚手架:脚手架:609442', XB=61.0,61.5,35.5,47.0,19.5,20.0, RGB=0,200,200, TRANSPARENCY=0.501961, SURF_ID='黄色钢管'/ 
&OBST ID='脚手架:脚手架:609442', XB=62.0,62.5,35.5,47.0,19.5,20.0, RGB=0,200,200, TRANSPARENCY=0.501961, SURF_ID='黄色钢管'/ 
&OBST ID='脚手架:脚手架:609443', XB=50.5,62.0,35.5,36.0,19.5,20.0, RGB=0,200,200, TRANSPARENCY=0.501961, SURF_ID='黄色钢管'/ 
&OBST ID='脚手架:脚手架:609443', XB=50.5,62.0,36.5,37.0,19.5,20.0, RGB=0,200,200, TRANSPARENCY=0.501961, SURF_ID='黄色钢管'/ 
&OBST ID='脚手架:脚手架:609444', XB=51.5,52.0,35.5,36.0,13.0,25.5, RGB=0,200,200, TRANSPARENCY=0.501961, SURF_ID='黄色钢管'/ 
&OBST ID='脚手架:脚手架:609444', XB=51.5,52.0,37.0,37.5,13.0,25.5, RGB=0,200,200, TRANSPARENCY=0.501961, SURF_ID='黄色钢管'/ 
&OBST ID='脚手架:脚手架:609444', XB=51.5,52.0,38.5,39.0,13.0,25.5, RGB=0,200,200, TRANSPARENCY=0.501961, SURF_ID='黄色钢管'/ 
&OBST ID='脚手架:脚手架:609444', XB=51.5,52.0,40.0,40.5,13.0,25.5, RGB=0,200,200, TRANSPARENCY=0.501961, SURF_ID='黄色钢管'/ 
&OBST ID='脚手架:脚手架:609444', XB=51.5,52.0,41.5,42.0,13.0,25.5, RGB=0,200,200, TRANSPARENCY=0.501961, SURF_ID='黄色钢管'/ 
&OBST ID='脚手架:脚手架:609444', XB=51.5,52.0,43.0,43.5,13.0,25.5, RGB=0,200,200, TRANSPARENCY=0.501961, SURF_ID='黄色钢管'/ 
&OBST ID='脚手架:脚手架:609444', XB=51.5,52.0,44.5,45.0,13.0,25.5, RGB=0,200,200, TRANSPARENCY=0.501961, SURF_ID='黄色钢管'/ 
&OBST ID='脚手架:脚手架:609444', XB=51.5,52.0,46.0,46.5,13.0,25.5, RGB=0,200,200, TRANSPARENCY=0.501961, SURF_ID='黄色钢管'/ 
&OBST ID='脚手架:脚手架:609444', XB=51.0,51.5,35.5,47.0,19.5,20.0, RGB=0,200,200, TRANSPARENCY=0.501961, SURF_ID='黄色钢管'/ 
&OBST ID='脚手架:脚手架:609444', XB=52.0,52.5,35.5,47.0,19.5,20.0, RGB=0,200,200, TRANSPARENCY=0.501961, SURF_ID='黄色钢管'/ 
&OBST ID='脚手架:脚手架:609454', XB=50.5,62.0,46.0,46.5,37.5,38.0, RGB=0,200,200, TRANSPARENCY=0.501961, SURF_ID='黄色钢管'/ 
&OBST ID='脚手架:脚手架:609454', XB=50.5,62.0,47.0,47.5,37.5,38.0, RGB=0,200,200, TRANSPARENCY=0.501961, SURF_ID='黄色钢管'/ 
&OBST ID='脚手架:脚手架:609455', XB=61.0,61.5,35.5,47.0,37.5,38.0, RGB=0,200,200, TRANSPARENCY=0.501961, SURF_ID='黄色钢管'/ 
&OBST ID='脚手架:脚手架:609455', XB=62.0,62.5,35.5,47.0,37.5,38.0, RGB=0,200,200, TRANSPARENCY=0.501961, SURF_ID='黄色钢管'/ 
! ... 268 like lines cut
&OBST ID='飞机:飞机:620963', XB=18.0,18.5,39.0,43.5,34.5,60.0, RGB=242,240,189, SURF_ID='火箭表面涂层'/ 
&OBST ID='飞机:飞机:620963', XB=18.0,19.0,39.0,43.5,26.0,33.5, RGB=242,240,189, SURF_ID='火箭表面涂层'/ 
&OBST ID='飞机:飞机:620963', XB=18.5,19.0,39.0,43.5,34.5,61.0, RGB=242,240,189, SURF_ID='火箭表面涂层'/ 
&OBST ID='飞机:飞机:620963', XB=19.0,19.5,39.0,43.5,26.0,61.5, RGB=242,240,189, SURF_ID='火箭表面涂层'/ 
&OBST ID='飞机:飞机:620963', XB=19.5,20.0,39.0,43.5,26.0,62.0, RGB=242,240,189, SURF_ID='火箭表面涂层'/ 
&OBST ID='飞机:飞机:620963', XB=20.0,20.5,39.0,43.5,26.0,63.0, RGB=242,240,189, SURF_ID='火箭表面涂层'/ 
&OBST ID='飞机:飞机:620963', XB=20.5,21.0,39.0,43.5,26.0,63.5, RGB=242,240,189, SURF_ID='火箭表面涂层'/ 
&OBST ID='飞机:飞机:620963', XB=21.0,21.5,39.0,43.5,26.0,64.0, RGB=242,240,189, SURF_ID='火箭表面涂层'/ 
&OBST ID='飞机:飞机:620963', XB=21.5,22.0,39.0,43.5,26.0,65.0, RGB=242,240,189, SURF_ID='火箭表面涂层'/ 
&OBST ID='飞机:飞机:620963', XB=21.5,26.0,43.5,46.5,26.0,33.5, RGB=242,240,189, SURF_ID='火箭表面涂层'/ 
&OBST ID='飞机:飞机:620963', XB=22.0,22.5,39.0,43.5,26.0,65.5, RGB=242,240,189, SURF_ID='火箭表面涂层'/ 
&OBST ID='飞机:飞机:620963', XB=22.5,23.0,39.0,43.5,26.0,66.0, RGB=242,240,189, SURF_ID='火箭表面涂层'/ 
&OBST ID='飞机:飞机:620963', XB=23.0,23.5,39.0,43.5,26.0,67.0, RGB=242,240,189, SURF_ID='火箭表面涂层'/ 
&OBST ID='飞机:飞机:620963', XB=23.5,24.0,39.0,43.5,26.0,66.5, RGB=242,240,189, SURF_ID='火箭表面涂层'/ 
&OBST ID='飞机:飞机:620963', XB=24.0,24.5,39.0,43.5,26.0,66.0, RGB=242,240,189, SURF_ID='火箭表面涂层'/ 
&OBST ID='飞机:飞机:620963', XB=24.5,25.0,39.0,43.5,26.0,65.5, RGB=242,240,189, SURF_ID='火箭表面涂层'/ 
&OBST ID='飞机:飞机:620963', XB=25.0,25.5,39.0,43.5,26.0,64.5, RGB=242,240,189, SURF_ID='火箭表面涂层'/ 
&OBST ID='飞机:飞机:620963', XB=25.5,26.0,39.0,43.5,26.0,64.0, RGB=242,240,189, SURF_ID='火箭表面涂层'/ 
&OBST ID='飞机:飞机:620963', XB=26.0,26.5,39.0,43.5,26.0,63.5, RGB=242,240,189, SURF_ID='火箭表面涂层'/ 
&OBST ID='飞机:飞机:620963', XB=26.5,27.0,39.0,43.5,26.0,62.5, RGB=242,240,189, SURF_ID='火箭表面涂层'/ 
! ... 17 like lines cut
&OBST ID='常规模型 13:常规模型 13:622338', XB=25.0,31.0,40.0,42.0,59.0,60.137897, RGB=242,240,189, SURF_ID='IfcBuildingElementProxy'/ 
&OBST ID='常规模型 13:常规模型 13:622338', XB=25.0,51.0,40.0,42.0,56.0,56.5, RGB=242,240,189, SURF_ID='IfcBuildingElementProxy'/ 
&OBST ID='常规模型 13:常规模型 13:622338', XB=25.0,31.0,40.0,40.5,56.5,59.5, RGB=242,240,189, SURF_ID='IfcBuildingElementProxy'/ 
&OBST ID='常规模型 13:常规模型 13:622338', XB=25.0,31.0,42.0,42.5,56.5,59.5, RGB=242,240,189, SURF_ID='IfcBuildingElementProxy'/ 
&OBST ID='六区钢架大样c-1:六区钢架大样c-1:622339', XB=48.5,49.0,42.0,42.5,56.5,57.0, RGB=242,240,189, SURF_ID='IfcBuildingElementProxy'/ 
&OBST ID='六区钢架大样c-1:六区钢架大样c-1:622339', XB=50.5,51.0,42.0,42.5,56.5,57.0, RGB=242,240,189, SURF_ID='IfcBuildingElementProxy'/ 
&OBST ID='六区钢架大样c-1:六区钢架大样c-1:622339', XB=48.5,49.0,42.0,42.5,56.5,57.0, RGB=242,240,189, SURF_ID='IfcBuildingElementProxy'/ 
&OBST ID='六区钢架大样c-1:六区钢架大样c-1:622347', XB=48.5,49.0,39.5,40.0,56.5,57.0, RGB=242,240,189, SURF_ID='IfcBuildingElementProxy'/ 
&OBST ID='六区钢架大样c-1:六区钢架大样c-1:622347', XB=48.5,49.0,40.0,40.5,56.5,57.0, RGB=242,240,189, SURF_ID='IfcBuildingElementProxy'/ 
&OBST ID='六区钢架大样c-1:六区钢架大样c-1:622348', XB=48.5,49.0,42.0,42.5,57.0,57.5, RGB=242,240,189, SURF_ID='IfcBuildingElementProxy'/ 
&OBST ID='六区钢架大样c-1:六区钢架大样c-1:622348', XB=50.5,51.0,42.0,42.5,57.0,57.5, RGB=242,240,189, SURF_ID='IfcBuildingElementProxy'/ 
&OBST ID='六区钢架大样c-1:六区钢架大样c-1:622348', XB=47.5,48.0,42.0,42.5,57.0,57.5, RGB=242,240,189, SURF_ID='IfcBuildingElementProxy'/ 
&OBST ID='六区钢架大样c-1:六区钢架大样c-1:622348', XB=47.5,48.0,42.5,43.0,57.0,57.5, RGB=242,240,189, SURF_ID='IfcBuildingElementProxy'/ 
&OBST ID='六区钢架大样c-1:六区钢架大样c-1:622348', XB=49.5,50.0,42.0,42.5,57.0,57.5, RGB=242,240,189, SURF_ID='IfcBuildingElementProxy'/ 
&OBST ID='六区钢架大样c-1:六区钢架大样c-1:622348', XB=49.5,50.0,42.5,43.0,57.0,57.5, RGB=242,240,189, SURF_ID='IfcBuildingElementProxy'/ 
&OBST ID='六区钢架大样c-1:六区钢架大样c-1:622348', XB=51.0,51.5,42.5,43.0,57.0,57.5, RGB=242,240,189, SURF_ID='IfcBuildingElementProxy'/ 
&OBST ID='六区钢架大样c-1:六区钢架大样c-1:622348', XB=47.5,48.0,42.0,42.5,57.0,57.5, RGB=242,240,189, SURF_ID='IfcBuildingElementProxy'/ 
&OBST ID='六区钢架大样c-1:六区钢架大样c-1:622348', XB=48.5,49.0,42.0,42.5,57.0,57.5, RGB=242,240,189, SURF_ID='IfcBuildingElementProxy'/ 
&OBST ID='六区钢架大样c-1:六区钢架大样c-1:622348', XB=49.5,50.0,42.0,42.5,57.0,57.5, RGB=242,240,189, SURF_ID='IfcBuildingElementProxy'/ 
&OBST ID='六区钢架大样c-1:六区钢架大样c-1:622348', XB=50.5,51.0,42.0,42.5,57.0,57.5, RGB=242,240,189, SURF_ID='IfcBuildingElementProxy'/ 
&OBST ID='六区钢架大样c-1:六区钢架大样c-1:622349', XB=48.5,49.0,39.5,40.0,57.0,57.5, RGB=242,240,189, SURF_ID='IfcBuildingElementProxy'/ 
&OBST ID='六区钢架大样c-1:六区钢架大样c-1:622349', XB=47.5,48.0,39.5,40.0,57.0,57.5, RGB=242,240,189, SURF_ID='IfcBuildingElementProxy'/ 
&OBST ID='六区钢架大样c-1:六区钢架大样c-1:622349', XB=47.5,48.0,40.0,40.5,57.0,57.5, RGB=242,240,189, SURF_ID='IfcBuildingElementProxy'/ 
&OBST ID='六区钢架大样c-1:六区钢架大样c-1:622349', XB=49.5,50.0,39.5,40.0,57.0,57.5, RGB=242,240,189, SURF_ID='IfcBuildingElementProxy'/ 
! ... 303 like lines cut
&OBST ID='楼板:120:355425', XB=2.5,13.5,21.5,39.0,17.5,18.0, SURF_ID='默认楼板01'/ 
&OBST ID='楼板:120:355425', XB=2.5,18.5,39.5,50.5,17.5,18.0, SURF_ID='默认楼板01'/ 
&OBST ID='楼板:120:355425', XB=2.5,43.5,3.0,21.5,17.5,18.0, SURF_ID='默认楼板01'/ 
&OBST ID='楼板:120:355425', XB=2.5,43.5,39.0,39.5,17.5,18.0, COLOR='GRAY 50', SURF_ID='默认楼板01'/ 
&OBST ID='楼板:120:355425', XB=2.5,43.5,50.5,52.0,17.5,18.0, COLOR='GRAY 50', SURF_ID='默认楼板01'/ 
&OBST ID='楼板:120:355425', XB=20.5,26.5,21.5,39.0,17.5,18.0, COLOR='GRAY 50', SURF_ID='默认楼板01'/ 
&OBST ID='楼板:120:355425', XB=28.5,43.5,39.5,50.5,17.5,18.0, SURF_ID='默认楼板01'/ 
&OBST ID='楼板:120:355425', XB=33.0,43.5,21.5,39.0,17.5,18.0, SURF_ID='默认楼板01'/ 
&OBST ID='可燃_脐带末端_综合接口_01', XB=31.0,32.5,39.5,40.5,57.0,58.0, SURF_ID='脐带综合接口表面'/ 
&OBST ID='可燃_脐带末端_综合接口_02', XB=31.0,32.5,42.0,43.0,57.0,58.0, SURF_ID='脐带综合接口表面'/ 
&OBST ID='可燃_脐带根部_裸露电缆_01', XB=49.0,50.0,39.5,40.0,56.5,57.0, SURF_ID='裸露电缆接口表面'/ 
&OBST ID='可燃_脐带末端_裸露电缆_02', XB=33.5,34.5,39.5,40.0,56.5,57.0, SURF_ID='裸露电缆接口表面'/ 
&OBST ID='可燃_脐带根部_裸露软管_01', XB=49.0,50.0,42.0,42.5,57.5,58.0, SURF_ID='裸露软管表面'/ 
&OBST ID='可燃_脐带末端_裸露软管_02', XB=33.5,34.5,42.0,42.5,57.5,58.0, SURF_ID='裸露软管表面'/ 
&OBST ID='可燃_脐带臂_低温保温段_01', XB=38.0,40.0,41.5,42.0,58.5,59.0, SURF_ID='低温保温弱可燃表面'/ 
&OBST ID='可燃_脐带臂_低温保温段_02', XB=44.0,46.0,41.5,42.0,58.5,59.0, SURF_ID='低温保温弱可燃表面'/ 
&OBST ID='可燃_下层设备区_控制柜_01', XB=11.0,12.0,22.0,22.5,11.0,12.5, SURF_ID='控制柜弱可燃表面'/ 
&OBST ID='可燃_下层设备区_控制柜_02', XB=30.0,31.0,22.0,22.5,11.0,12.5, SURF_ID='控制柜弱可燃表面'/ 
&OBST ID='可燃_下层设备区_控制柜_03', XB=36.0,37.0,44.0,44.5,11.0,12.5, SURF_ID='控制柜弱可燃表面'/ 
&OBST ID='可燃_下层设备区_控制柜_04', XB=13.0,14.0,22.0,22.5,11.0,12.5, SURF_ID='控制柜弱可燃表面'/ 
&OBST ID='可燃_下层设备区_裸露电缆接口_01', XB=12.0,13.0,24.5,25.0,11.5,12.0, SURF_ID='裸露电缆接口表面'/ 
&OBST ID='可燃_下层设备区_裸露电缆接口_02', XB=33.5,34.5,42.0,42.5,11.5,12.0, SURF_ID='裸露电缆接口表面'/ 
&OBST ID='可燃_下层设备区_软管接口_01', XB=31.0,32.0,11.0,11.5,11.5,12.0, SURF_ID='裸露软管表面'/ 
&OBST ID='可燃_下层设备区_软管接口_02', XB=37.5,38.5,12.0,12.5,11.5,12.0, SURF_ID='裸露软管表面'/ 
&OBST ID='可燃_上层平台_控制柜_01', XB=11.0,12.0,23.0,23.5,15.0,16.5, SURF_ID='控制柜弱可燃表面'/ 
&OBST ID='可燃_上层平台_控制柜_02', XB=38.0,39.0,42.0,42.5,15.0,16.5, SURF_ID='控制柜弱可燃表面'/ 
&OBST ID='可燃_上层平台_软管接口_01', XB=30.0,31.0,38.0,38.5,15.0,15.5, SURF_ID='裸露软管表面'/ 
&OBST ID='可燃_上层平台_软管接口_02', XB=38.0,39.0,42.5,43.0,15.0,15.5, SURF_ID='裸露软管表面'/ 
&OBST ID='可燃_上层平台_低温保温段_01', XB=22.0,24.0,38.5,39.0,15.5,16.0, SURF_ID='低温保温弱可燃表面'/ 
&OBST ID='非燃_发射塔_竖向钢制电缆桥架_01', XB=50.0,50.5,36.0,36.5,1.0,78.0, SURF_ID='钢制桥架表面'/ 
&OBST ID='非燃_发射塔_竖向钢制电缆桥架_02', XB=62.0,62.5,46.0,46.5,1.0,78.0, SURF_ID='钢制桥架表面'/ 
&OBST ID='非燃_发射塔_22m层钢制电缆桥架', XB=51.0,61.0,36.5,37.0,22.0,22.5, SURF_ID='钢制桥架表面'/ 
&OBST ID='非燃_发射塔_38m层钢制电缆桥架', XB=51.0,61.0,36.5,37.0,38.0,38.5, SURF_ID='钢制桥架表面'/ 
&OBST ID='非燃_发射塔_54m层钢制电缆桥架', XB=51.0,61.0,36.5,37.0,54.0,54.5, SURF_ID='钢制桥架表面'/ 
&OBST ID='非燃_发射塔_70m层钢制电缆桥架', XB=51.0,61.0,36.5,37.0,70.0,70.5, SURF_ID='钢制桥架表面'/ 
&OBST ID='可燃_发射塔_06m层控制柜', XB=59.5,60.5,43.5,44.0,5.5,7.0, SURF_ID='控制柜弱可燃表面'/ 
&OBST ID='可燃_发射塔_22m层控制柜', XB=59.5,60.5,43.5,44.0,21.5,23.0, SURF_ID='控制柜弱可燃表面'/ 
&OBST ID='可燃_发射塔_38m层控制柜', XB=59.5,60.5,43.5,44.0,37.5,39.0, SURF_ID='控制柜弱可燃表面'/ 
&OBST ID='可燃_发射塔_54m层控制柜', XB=59.5,60.5,43.5,44.0,53.5,55.0, SURF_ID='控制柜弱可燃表面'/ 
&OBST ID='可燃_发射塔_06m层电缆接口', XB=53.5,54.5,42.0,42.5,6.0,6.5, SURF_ID='裸露电缆接口表面'/ 
&OBST ID='可燃_发射塔_22m层电缆接口', XB=53.5,54.5,42.0,42.5,22.0,22.5, SURF_ID='裸露电缆接口表面'/ 
&OBST ID='可燃_发射塔_38m层电缆接口', XB=53.5,54.5,42.0,42.5,38.0,38.5, SURF_ID='裸露电缆接口表面'/ 
&OBST ID='可燃_发射塔_54m层电缆接口', XB=53.5,54.5,42.0,42.5,54.0,54.5, SURF_ID='裸露电缆接口表面'/ 
&OBST ID='可燃_发动机舱_电缆接口_02', XB=28.0,29.0,37.5,38.0,18.5,19.0, SURF_ID='裸露电缆接口表面'/ 
&OBST ID='可燃_发动机舱_软管接口_01', XB=26.5,27.5,38.0,38.5,18.5,19.0, SURF_ID='裸露软管表面'/ 
&OBST ID='可燃_发动机舱_软管接口_02', XB=20.5,21.5,39.0,39.5,18.5,19.0, SURF_ID='裸露软管表面'/ 

&VENT ID='Mesh Vent: Mesh01 [XMAX]', SURF_ID='RADIATION', XB=63.0,63.0,34.0,48.0,0.0,80.0, DEVC_ID='TIMER->OUT->OUT'/ 
&VENT ID='Mesh Vent: Mesh01 [XMAX]', SURF_ID='RADIATION', XB=63.0,63.0,2.0,34.0,0.0,80.0, DEVC_ID='TIMER->OUT->OUT'/ 
&VENT ID='Mesh Vent: Mesh01 [XMAX]', SURF_ID='RADIATION', XB=63.0,63.0,48.0,54.0,0.0,80.0, DEVC_ID='TIMER->OUT->OUT'/ 
&VENT ID='Mesh Vent: Mesh01 [XMIN]', SURF_ID='OPEN', XB=1.0,1.0,2.0,54.0,18.0,80.0/ 
&VENT ID='Mesh Vent: Mesh01 [XMIN]', SURF_ID='OPEN', XB=1.0,1.0,2.0,54.0,0.0,18.0/ 
&VENT ID='Mesh Vent: Mesh01 [YMAX]', SURF_ID='OPEN', XB=48.0,63.0,54.0,54.0,0.0,80.0/ 
&VENT ID='Mesh Vent: Mesh01 [YMAX]', SURF_ID='OPEN', XB=1.0,48.0,54.0,54.0,18.0,80.0/ 
&VENT ID='Mesh Vent: Mesh01 [YMAX]', SURF_ID='OPEN', XB=1.0,48.0,54.0,54.0,0.0,18.0/ 
&VENT ID='Mesh Vent: Mesh01 [YMIN]', SURF_ID='OPEN', XB=1.0,48.0,2.0,2.0,0.0,18.0/ 
&VENT ID='Mesh Vent: Mesh01 [YMIN]', SURF_ID='OPEN', XB=48.0,63.0,2.0,2.0,0.0,80.0/ 
&VENT ID='Mesh Vent: Mesh01 [YMIN]', SURF_ID='OPEN', XB=1.0,48.0,2.0,2.0,18.0,80.0/ 
&VENT ID='Mesh Vent: Mesh01 [ZMAX]', SURF_ID='radiationz', XB=1.0,48.0,34.0,48.0,80.0,80.0, DEVC_ID='TIMER->OUT->OUT'/ 
&VENT ID='Mesh Vent: Mesh01 [ZMAX]', SURF_ID='radiationz', XB=48.0,63.0,34.0,48.0,80.0,80.0, DEVC_ID='TIMER->OUT->OUT'/ 
&VENT ID='Mesh Vent: Mesh01 [ZMAX]', SURF_ID='radiationz', XB=1.0,63.0,2.0,34.0,80.0,80.0, DEVC_ID='TIMER->OUT->OUT'/ 
&VENT ID='Mesh Vent: Mesh01 [ZMAX]', SURF_ID='radiationz', XB=1.0,63.0,48.0,54.0,80.0,80.0, DEVC_ID='TIMER->OUT->OUT'/ 
&VENT ID='Mesh Vent: Mesh01 [ZMIN]', SURF_ID='OPEN', XB=48.0,63.0,2.0,34.0,0.0,0.0/ 
&VENT ID='Mesh Vent: Mesh01 [ZMIN]', SURF_ID='OPEN', XB=1.0,48.0,2.0,54.0,0.0,0.0/ 
&VENT ID='Mesh Vent: Mesh01 [ZMIN]', SURF_ID='OPEN', XB=48.0,63.0,34.0,48.0,0.0,0.0/ 
&VENT ID='Mesh Vent: Mesh01 [ZMIN]', SURF_ID='OPEN', XB=48.0,63.0,48.0,54.0,0.0,0.0/ 

&SLCF QUANTITY='HRRPUV', PBZ=12.0/
&SLCF QUANTITY='RADIATION LOSS', PBZ=12.0/
&SLCF QUANTITY='TEMPERATURE', PBZ=12.0/
&SLCF QUANTITY='RADIATION LOSS', PBZ=16.0/
&SLCF QUANTITY='TEMPERATURE', PBZ=16.0/
&SLCF QUANTITY='HRRPUV', PBZ=16.0/
&SLCF QUANTITY='HRRPUV', PBZ=58.0/
&SLCF QUANTITY='RADIATION LOSS', PBZ=58.0/
&SLCF QUANTITY='TEMPERATURE', PBZ=58.0/


&TAIL /
